<routes>

        <vType id = 'ego_car' vclass="evehicle" emissionClass="Energy" tau="1.5" accel="3.0" decel="3.0" color="#00FFFF" sigma="0.2" length="4.90" minGap="1.0" maxSpeed="20" carFollowing="IDM" guiShape="passenger"/>

        <route id="N2S" edges="NS -SN"/>
        <route id="S2N" edges="SN -NS"/>
        <route id="W2E" edges="WE -EW"/>
        <route id="E2W" edges="EW -WE"/>
   <vehicle id="S2N_1" type="ego_car" route="S2N" depart="44" departSpeed="10" departLane="best"/>
   <vehicle id="W2E_2" type="ego_car" route="W2E" depart="84" departSpeed="10" departLane="best"/>
   <vehicle id="E2W_3" type="ego_car" route="E2W" depart="104" departSpeed="10" departLane="best"/>
   <vehicle id="N2S_4" type="ego_car" route="N2S" depart="116" departSpeed="10" departLane="best"/>
   <vehicle id="E2W_5" type="ego_car" route="E2W" depart="132" departSpeed="10" departLane="best"/>
   <vehicle id="E2W_6" type="ego_car" route="E2W" depart="162" departSpeed="10" departLane="best"/>
   <vehicle id="W2E_7" type="ego_car" route="W2E" depart="166" departSpeed="10" departLane="best"/>
   <vehicle id="N2S_8" type="ego_car" route="N2S" depart="183" departSpeed="10" departLane="best"/>
   <vehicle id="N2S_9" type="ego_car" route="N2S" depart="188" departSpeed="10" departLane="best"/>
   <vehicle id="S2N_10" type="ego_car" route="S2N" depart="197" departSpeed="10" departLane="best"/>
   <vehicle id="N2S_11" type="ego_car" route="N2S" depart="197" departSpeed="10" departLane="best"/>
   <vehicle id="S2N_12" type="ego_car" route="S2N" depart="198" departSpeed="10" departLane="best"/>
   <vehicle id="E2W_13" type="ego_car" route="E2W" depart="203" departSpeed="10" departLane="best"/>
   <vehicle id="S2N_14" type="ego_car" route="S2N" depart="210" departSpeed="10" departLane="best"/>
   <vehicle id="N2S_15" type="ego_car" route="N2S" depart="210" departSpeed="10" departLane="best"/>
   <vehicle id="S2N_16" type="ego_car" route="S2N" depart="224" departSpeed="10" departLane="best"/>
   <vehicle id="E2W_17" type="ego_car" route="E2W" depart="228" departSpeed="10" departLane="best"/>
   <vehicle id="W2E_18" type="ego_car" route="W2E" depart="264" departSpeed="10" departLane="best"/>
   <vehicle id="W2E_19" type="ego_car" route="W2E" depart="303" departSpeed="10" departLane="best"/>
   <vehicle id="W2E_20" type="ego_car" route="W2E" depart="310" departSpeed="10" departLane="best"/>
   <vehicle id="E2W_21" type="ego_car" route="E2W" depart="329" departSpeed="10" departLane="best"/>
   <vehicle id="E2W_22" type="ego_car" route="E2W" depart="334" departSpeed="10" departLane="best"/>
   <vehicle id="W2E_23" type="ego_car" route="W2E" depart="352" departSpeed="10" departLane="best"/>
   <vehicle id="N2S_24" type="ego_car" route="N2S" depart="353" departSpeed="10" departLane="best"/>
   <vehicle id="N2S_25" type="ego_car" route="N2S" depart="362" departSpeed="10" departLane="best"/>
   <vehicle id="W2E_26" type="ego_car" route="W2E" depart="372" departSpeed="10" departLane="best"/>
   <vehicle id="N2S_27" type="ego_car" route="N2S" depart="373" departSpeed="10" departLane="best"/>
   <vehicle id="W2E_28" type="ego_car" route="W2E" depart="378" departSpeed="10" departLane="best"/>
   <vehicle id="N2S_29" type="ego_car" route="N2S" depart="379" departSpeed="10" departLane="best"/>
   <vehicle id="W2E_30" type="ego_car" route="W2E" depart="380" departSpeed="10" departLane="best"/>
   <vehicle id="N2S_31" type="ego_car" route="N2S" depart="394" departSpeed="10" departLane="best"/>
   <vehicle id="E2W_32" type="ego_car" route="E2W" depart="398" departSpeed="10" departLane="best"/>
   <vehicle id="N2S_33" type="ego_car" route="N2S" depart="410" departSpeed="10" departLane="best"/>
   <vehicle id="E2W_34" type="ego_car" route="E2W" depart="430" departSpeed="10" departLane="best"/>
   <vehicle id="W2E_35" type="ego_car" route="W2E" depart="440" departSpeed="10" departLane="best"/>
   <vehicle id="W2E_36" type="ego_car" route="W2E" depart="448" departSpeed="10" departLane="best"/>
   <vehicle id="S2N_37" type="ego_car" route="S2N" depart="460" departSpeed="10" departLane="best"/>
   <vehicle id="S2N_38" type="ego_car" route="S2N" depart="464" departSpeed="10" departLane="best"/>
   <vehicle id="N2S_39" type="ego_car" route="N2S" depart="473" departSpeed="10" departLane="best"/>
   <vehicle id="N2S_40" type="ego_car" route="N2S" depart="485" departSpeed="10" departLane="best"/>
   <vehicle id="W2E_41" type="ego_car" route="W2E" depart="487" departSpeed="10" departLane="best"/>
   <vehicle id="N2S_42" type="ego_car" route="N2S" depart="491" departSpeed="10" departLane="best"/>
   <vehicle id="S2N_43" type="ego_car" route="S2N" depart="492" departSpeed="10" departLane="best"/>
   <vehicle id="W2E_44" type="ego_car" route="W2E" depart="499" departSpeed="10" departLane="best"/>
   <vehicle id="S2N_45" type="ego_car" route="S2N" depart="503" departSpeed="10" departLane="best"/>
   <vehicle id="S2N_46" type="ego_car" route="S2N" depart="511" departSpeed="10" departLane="best"/>
   <vehicle id="S2N_47" type="ego_car" route="S2N" depart="512" departSpeed="10" departLane="best"/>
   <vehicle id="W2E_48" type="ego_car" route="W2E" depart="512" departSpeed="10" departLane="best"/>
   <vehicle id="N2S_49" type="ego_car" route="N2S" depart="520" departSpeed="10" departLane="best"/>
   <vehicle id="N2S_50" type="ego_car" route="N2S" depart="525" departSpeed="10" departLane="best"/>
   <vehicle id="W2E_51" type="ego_car" route="W2E" depart="527" departSpeed="10" departLane="best"/>
   <vehicle id="N2S_52" type="ego_car" route="N2S" depart="535" departSpeed="10" departLane="best"/>
   <vehicle id="W2E_53" type="ego_car" route="W2E" depart="540" departSpeed="10" departLane="best"/>
   <vehicle id="N2S_54" type="ego_car" route="N2S" depart="560" departSpeed="10" departLane="best"/>
   <vehicle id="N2S_55" type="ego_car" route="N2S" depart="562" departSpeed="10" departLane="best"/>
   <vehicle id="S2N_56" type="ego_car" route="S2N" depart="566" departSpeed="10" departLane="best"/>
   <vehicle id="N2S_57" type="ego_car" route="N2S" depart="566" departSpeed="10" departLane="best"/>
   <vehicle id="N2S_58" type="ego_car" route="N2S" depart="574" departSpeed="10" departLane="best"/>
   <vehicle id="W2E_59" type="ego_car" route="W2E" depart="578" departSpeed="10" departLane="best"/>
   <vehicle id="W2E_60" type="ego_car" route="W2E" depart="584" departSpeed="10" departLane="best"/>
   <vehicle id="N2S_61" type="ego_car" route="N2S" depart="584" departSpeed="10" departLane="best"/>
   <vehicle id="N2S_62" type="ego_car" route="N2S" depart="585" departSpeed="10" departLane="best"/>
   <vehicle id="N2S_63" type="ego_car" route="N2S" depart="590" departSpeed="10" departLane="best"/>
   <vehicle id="N2S_64" type="ego_car" route="N2S" depart="590" departSpeed="10" departLane="best"/>
   <vehicle id="S2N_65" type="ego_car" route="S2N" depart="591" departSpeed="10" departLane="best"/>
   <vehicle id="S2N_66" type="ego_car" route="S2N" depart="596" departSpeed="10" departLane="best"/>
   <vehicle id="S2N_67" type="ego_car" route="S2N" depart="597" departSpeed="10" departLane="best"/>
   <vehicle id="W2E_68" type="ego_car" route="W2E" depart="600" departSpeed="10" departLane="best"/>
   <vehicle id="S2N_69" type="ego_car" route="S2N" depart="601" departSpeed="10" departLane="best"/>
   <vehicle id="S2N_70" type="ego_car" route="S2N" depart="610" departSpeed="10" departLane="best"/>
   <vehicle id="N2S_71" type="ego_car" route="N2S" depart="618" departSpeed="10" departLane="best"/>
   <vehicle id="N2S_72" type="ego_car" route="N2S" depart="621" departSpeed="10" departLane="best"/>
   <vehicle id="W2E_73" type="ego_car" route="W2E" depart="636" departSpeed="10" departLane="best"/>
   <vehicle id="W2E_74" type="ego_car" route="W2E" depart="637" departSpeed="10" departLane="best"/>
   <vehicle id="N2S_75" type="ego_car" route="N2S" depart="639" departSpeed="10" departLane="best"/>
   <vehicle id="N2S_76" type="ego_car" route="N2S" depart="640" departSpeed="10" departLane="best"/>
   <vehicle id="E2W_77" type="ego_car" route="E2W" depart="641" departSpeed="10" departLane="best"/>
   <vehicle id="W2E_78" type="ego_car" route="W2E" depart="642" departSpeed="10" departLane="best"/>
   <vehicle id="W2E_79" type="ego_car" route="W2E" depart="642" departSpeed="10" departLane="best"/>
   <vehicle id="S2N_80" type="ego_car" route="S2N" depart="643" departSpeed="10" departLane="best"/>
   <vehicle id="W2E_81" type="ego_car" route="W2E" depart="645" departSpeed="10" departLane="best"/>
   <vehicle id="E2W_82" type="ego_car" route="E2W" depart="646" departSpeed="10" departLane="best"/>
   <vehicle id="W2E_83" type="ego_car" route="W2E" depart="657" departSpeed="10" departLane="best"/>
   <vehicle id="S2N_84" type="ego_car" route="S2N" depart="660" departSpeed="10" departLane="best"/>
   <vehicle id="E2W_85" type="ego_car" route="E2W" depart="663" departSpeed="10" departLane="best"/>
   <vehicle id="S2N_86" type="ego_car" route="S2N" depart="676" departSpeed="10" departLane="best"/>
   <vehicle id="N2S_87" type="ego_car" route="N2S" depart="677" departSpeed="10" departLane="best"/>
   <vehicle id="E2W_88" type="ego_car" route="E2W" depart="678" departSpeed="10" departLane="best"/>
   <vehicle id="S2N_89" type="ego_car" route="S2N" depart="679" departSpeed="10" departLane="best"/>
   <vehicle id="S2N_90" type="ego_car" route="S2N" depart="681" departSpeed="10" departLane="best"/>
   <vehicle id="N2S_91" type="ego_car" route="N2S" depart="681" departSpeed="10" departLane="best"/>
   <vehicle id="E2W_92" type="ego_car" route="E2W" depart="693" departSpeed="10" departLane="best"/>
   <vehicle id="E2W_93" type="ego_car" route="E2W" depart="699" departSpeed="10" departLane="best"/>
   <vehicle id="N2S_94" type="ego_car" route="N2S" depart="703" departSpeed="10" departLane="best"/>
   <vehicle id="W2E_95" type="ego_car" route="W2E" depart="708" departSpeed="10" departLane="best"/>
   <vehicle id="N2S_96" type="ego_car" route="N2S" depart="719" departSpeed="10" departLane="best"/>
   <vehicle id="E2W_97" type="ego_car" route="E2W" depart="731" departSpeed="10" departLane="best"/>
   <vehicle id="W2E_98" type="ego_car" route="W2E" depart="735" departSpeed="10" departLane="best"/>
   <vehicle id="S2N_99" type="ego_car" route="S2N" depart="737" departSpeed="10" departLane="best"/>
   <vehicle id="W2E_100" type="ego_car" route="W2E" depart="737" departSpeed="10" departLane="best"/>
   <vehicle id="S2N_101" type="ego_car" route="S2N" depart="739" departSpeed="10" departLane="best"/>
   <vehicle id="S2N_102" type="ego_car" route="S2N" depart="750" departSpeed="10" departLane="best"/>
   <vehicle id="E2W_103" type="ego_car" route="E2W" depart="751" departSpeed="10" departLane="best"/>
   <vehicle id="S2N_104" type="ego_car" route="S2N" depart="759" departSpeed="10" departLane="best"/>
   <vehicle id="N2S_105" type="ego_car" route="N2S" depart="760" departSpeed="10" departLane="best"/>
   <vehicle id="N2S_106" type="ego_car" route="N2S" depart="763" departSpeed="10" departLane="best"/>
   <vehicle id="N2S_107" type="ego_car" route="N2S" depart="764" departSpeed="10" departLane="best"/>
   <vehicle id="N2S_108" type="ego_car" route="N2S" depart="771" departSpeed="10" departLane="best"/>
   <vehicle id="S2N_109" type="ego_car" route="S2N" depart="772" departSpeed="10" departLane="best"/>
   <vehicle id="S2N_110" type="ego_car" route="S2N" depart="773" departSpeed="10" departLane="best"/>
   <vehicle id="W2E_111" type="ego_car" route="W2E" depart="777" departSpeed="10" departLane="best"/>
   <vehicle id="N2S_112" type="ego_car" route="N2S" depart="786" departSpeed="10" departLane="best"/>
   <vehicle id="W2E_113" type="ego_car" route="W2E" depart="793" departSpeed="10" departLane="best"/>
   <vehicle id="W2E_114" type="ego_car" route="W2E" depart="803" departSpeed="10" departLane="best"/>
   <vehicle id="E2W_115" type="ego_car" route="E2W" depart="809" departSpeed="10" departLane="best"/>
   <vehicle id="S2N_116" type="ego_car" route="S2N" depart="811" departSpeed="10" departLane="best"/>
   <vehicle id="W2E_117" type="ego_car" route="W2E" depart="812" departSpeed="10" departLane="best"/>
   <vehicle id="W2E_118" type="ego_car" route="W2E" depart="816" departSpeed="10" departLane="best"/>
   <vehicle id="N2S_119" type="ego_car" route="N2S" depart="817" departSpeed="10" departLane="best"/>
   <vehicle id="E2W_120" type="ego_car" route="E2W" depart="819" departSpeed="10" departLane="best"/>
   <vehicle id="E2W_121" type="ego_car" route="E2W" depart="820" departSpeed="10" departLane="best"/>
   <vehicle id="S2N_122" type="ego_car" route="S2N" depart="823" departSpeed="10" departLane="best"/>
   <vehicle id="S2N_123" type="ego_car" route="S2N" depart="824" departSpeed="10" departLane="best"/>
   <vehicle id="S2N_124" type="ego_car" route="S2N" depart="834" departSpeed="10" departLane="best"/>
   <vehicle id="S2N_125" type="ego_car" route="S2N" depart="838" departSpeed="10" departLane="best"/>
   <vehicle id="N2S_126" type="ego_car" route="N2S" depart="838" departSpeed="10" departLane="best"/>
   <vehicle id="S2N_127" type="ego_car" route="S2N" depart="842" departSpeed="10" departLane="best"/>
   <vehicle id="E2W_128" type="ego_car" route="E2W" depart="844" departSpeed="10" departLane="best"/>
   <vehicle id="W2E_129" type="ego_car" route="W2E" depart="845" departSpeed="10" departLane="best"/>
   <vehicle id="N2S_130" type="ego_car" route="N2S" depart="845" departSpeed="10" departLane="best"/>
   <vehicle id="W2E_131" type="ego_car" route="W2E" depart="850" departSpeed="10" departLane="best"/>
   <vehicle id="S2N_132" type="ego_car" route="S2N" depart="854" departSpeed="10" departLane="best"/>
   <vehicle id="W2E_133" type="ego_car" route="W2E" depart="865" departSpeed="10" departLane="best"/>
   <vehicle id="W2E_134" type="ego_car" route="W2E" depart="868" departSpeed="10" departLane="best"/>
   <vehicle id="S2N_135" type="ego_car" route="S2N" depart="876" departSpeed="10" departLane="best"/>
   <vehicle id="S2N_136" type="ego_car" route="S2N" depart="877" departSpeed="10" departLane="best"/>
   <vehicle id="N2S_137" type="ego_car" route="N2S" depart="882" departSpeed="10" departLane="best"/>
   <vehicle id="W2E_138" type="ego_car" route="W2E" depart="886" departSpeed="10" departLane="best"/>
   <vehicle id="S2N_139" type="ego_car" route="S2N" depart="889" departSpeed="10" departLane="best"/>
   <vehicle id="S2N_140" type="ego_car" route="S2N" depart="893" departSpeed="10" departLane="best"/>
   <vehicle id="N2S_141" type="ego_car" route="N2S" depart="894" departSpeed="10" departLane="best"/>
   <vehicle id="N2S_142" type="ego_car" route="N2S" depart="896" departSpeed="10" departLane="best"/>
   <vehicle id="S2N_143" type="ego_car" route="S2N" depart="905" departSpeed="10" departLane="best"/>
   <vehicle id="S2N_144" type="ego_car" route="S2N" depart="907" departSpeed="10" departLane="best"/>
   <vehicle id="N2S_145" type="ego_car" route="N2S" depart="916" departSpeed="10" departLane="best"/>
   <vehicle id="S2N_146" type="ego_car" route="S2N" depart="919" departSpeed="10" departLane="best"/>
   <vehicle id="E2W_147" type="ego_car" route="E2W" depart="926" departSpeed="10" departLane="best"/>
   <vehicle id="S2N_148" type="ego_car" route="S2N" depart="927" departSpeed="10" departLane="best"/>
   <vehicle id="E2W_149" type="ego_car" route="E2W" depart="936" departSpeed="10" departLane="best"/>
   <vehicle id="N2S_150" type="ego_car" route="N2S" depart="941" departSpeed="10" departLane="best"/>
   <vehicle id="N2S_151" type="ego_car" route="N2S" depart="943" departSpeed="10" departLane="best"/>
   <vehicle id="S2N_152" type="ego_car" route="S2N" depart="945" departSpeed="10" departLane="best"/>
   <vehicle id="N2S_153" type="ego_car" route="N2S" depart="948" departSpeed="10" departLane="best"/>
   <vehicle id="W2E_154" type="ego_car" route="W2E" depart="951" departSpeed="10" departLane="best"/>
   <vehicle id="W2E_155" type="ego_car" route="W2E" depart="956" departSpeed="10" departLane="best"/>
   <vehicle id="W2E_156" type="ego_car" route="W2E" depart="961" departSpeed="10" departLane="best"/>
   <vehicle id="E2W_157" type="ego_car" route="E2W" depart="963" departSpeed="10" departLane="best"/>
   <vehicle id="N2S_158" type="ego_car" route="N2S" depart="972" departSpeed="10" departLane="best"/>
   <vehicle id="E2W_159" type="ego_car" route="E2W" depart="974" departSpeed="10" departLane="best"/>
   <vehicle id="W2E_160" type="ego_car" route="W2E" depart="975" departSpeed="10" departLane="best"/>
   <vehicle id="W2E_161" type="ego_car" route="W2E" depart="983" departSpeed="10" departLane="best"/>
   <vehicle id="S2N_162" type="ego_car" route="S2N" depart="984" departSpeed="10" departLane="best"/>
   <vehicle id="S2N_163" type="ego_car" route="S2N" depart="991" departSpeed="10" departLane="best"/>
   <vehicle id="E2W_164" type="ego_car" route="E2W" depart="993" departSpeed="10" departLane="best"/>
   <vehicle id="S2N_165" type="ego_car" route="S2N" depart="994" departSpeed="10" departLane="best"/>
   <vehicle id="S2N_166" type="ego_car" route="S2N" depart="1002" departSpeed="10" departLane="best"/>
   <vehicle id="S2N_167" type="ego_car" route="S2N" depart="1006" departSpeed="10" departLane="best"/>
   <vehicle id="E2W_168" type="ego_car" route="E2W" depart="1007" departSpeed="10" departLane="best"/>
   <vehicle id="N2S_169" type="ego_car" route="N2S" depart="1009" departSpeed="10" departLane="best"/>
   <vehicle id="E2W_170" type="ego_car" route="E2W" depart="1011" departSpeed="10" departLane="best"/>
   <vehicle id="W2E_171" type="ego_car" route="W2E" depart="1012" departSpeed="10" departLane="best"/>
   <vehicle id="W2E_172" type="ego_car" route="W2E" depart="1014" departSpeed="10" departLane="best"/>
   <vehicle id="E2W_173" type="ego_car" route="E2W" depart="1021" departSpeed="10" departLane="best"/>
   <vehicle id="E2W_174" type="ego_car" route="E2W" depart="1022" departSpeed="10" departLane="best"/>
   <vehicle id="S2N_175" type="ego_car" route="S2N" depart="1023" departSpeed="10" departLane="best"/>
   <vehicle id="W2E_176" type="ego_car" route="W2E" depart="1024" departSpeed="10" departLane="best"/>
   <vehicle id="N2S_177" type="ego_car" route="N2S" depart="1025" departSpeed="10" departLane="best"/>
   <vehicle id="N2S_178" type="ego_car" route="N2S" depart="1038" departSpeed="10" departLane="best"/>
   <vehicle id="S2N_179" type="ego_car" route="S2N" depart="1040" departSpeed="10" departLane="best"/>
   <vehicle id="W2E_180" type="ego_car" route="W2E" depart="1042" departSpeed="10" departLane="best"/>
   <vehicle id="N2S_181" type="ego_car" route="N2S" depart="1047" departSpeed="10" departLane="best"/>
   <vehicle id="N2S_182" type="ego_car" route="N2S" depart="1049" departSpeed="10" departLane="best"/>
   <vehicle id="N2S_183" type="ego_car" route="N2S" depart="1051" departSpeed="10" departLane="best"/>
   <vehicle id="E2W_184" type="ego_car" route="E2W" depart="1061" departSpeed="10" departLane="best"/>
   <vehicle id="S2N_185" type="ego_car" route="S2N" depart="1064" departSpeed="10" departLane="best"/>
   <vehicle id="N2S_186" type="ego_car" route="N2S" depart="1081" departSpeed="10" departLane="best"/>
   <vehicle id="S2N_187" type="ego_car" route="S2N" depart="1085" departSpeed="10" departLane="best"/>
   <vehicle id="W2E_188" type="ego_car" route="W2E" depart="1090" departSpeed="10" departLane="best"/>
   <vehicle id="W2E_189" type="ego_car" route="W2E" depart="1094" departSpeed="10" departLane="best"/>
   <vehicle id="W2E_190" type="ego_car" route="W2E" depart="1097" departSpeed="10" departLane="best"/>
   <vehicle id="N2S_191" type="ego_car" route="N2S" depart="1100" departSpeed="10" departLane="best"/>
   <vehicle id="W2E_192" type="ego_car" route="W2E" depart="1101" departSpeed="10" departLane="best"/>
   <vehicle id="N2S_193" type="ego_car" route="N2S" depart="1109" departSpeed="10" departLane="best"/>
   <vehicle id="W2E_194" type="ego_car" route="W2E" depart="1113" departSpeed="10" departLane="best"/>
   <vehicle id="S2N_195" type="ego_car" route="S2N" depart="1128" departSpeed="10" departLane="best"/>
   <vehicle id="N2S_196" type="ego_car" route="N2S" depart="1131" departSpeed="10" departLane="best"/>
   <vehicle id="S2N_197" type="ego_car" route="S2N" depart="1161" departSpeed="10" departLane="best"/>
   <vehicle id="S2N_198" type="ego_car" route="S2N" depart="1161" departSpeed="10" departLane="best"/>
   <vehicle id="S2N_199" type="ego_car" route="S2N" depart="1164" departSpeed="10" departLane="best"/>
   <vehicle id="S2N_200" type="ego_car" route="S2N" depart="1165" departSpeed="10" departLane="best"/>
   <vehicle id="E2W_201" type="ego_car" route="E2W" depart="1169" departSpeed="10" departLane="best"/>
   <vehicle id="E2W_202" type="ego_car" route="E2W" depart="1170" departSpeed="10" departLane="best"/>
   <vehicle id="S2N_203" type="ego_car" route="S2N" depart="1178" departSpeed="10" departLane="best"/>
   <vehicle id="S2N_204" type="ego_car" route="S2N" depart="1183" departSpeed="10" departLane="best"/>
   <vehicle id="N2S_205" type="ego_car" route="N2S" depart="1195" departSpeed="10" departLane="best"/>
   <vehicle id="W2E_206" type="ego_car" route="W2E" depart="1196" departSpeed="10" departLane="best"/>
   <vehicle id="S2N_207" type="ego_car" route="S2N" depart="1202" departSpeed="10" departLane="best"/>
   <vehicle id="N2S_208" type="ego_car" route="N2S" depart="1206" departSpeed="10" departLane="best"/>
   <vehicle id="E2W_209" type="ego_car" route="E2W" depart="1207" departSpeed="10" departLane="best"/>
   <vehicle id="N2S_210" type="ego_car" route="N2S" depart="1207" departSpeed="10" departLane="best"/>
   <vehicle id="E2W_211" type="ego_car" route="E2W" depart="1216" departSpeed="10" departLane="best"/>
   <vehicle id="E2W_212" type="ego_car" route="E2W" depart="1220" departSpeed="10" departLane="best"/>
   <vehicle id="N2S_213" type="ego_car" route="N2S" depart="1222" departSpeed="10" departLane="best"/>
   <vehicle id="W2E_214" type="ego_car" route="W2E" depart="1227" departSpeed="10" departLane="best"/>
   <vehicle id="E2W_215" type="ego_car" route="E2W" depart="1228" departSpeed="10" departLane="best"/>
   <vehicle id="S2N_216" type="ego_car" route="S2N" depart="1237" departSpeed="10" departLane="best"/>
   <vehicle id="S2N_217" type="ego_car" route="S2N" depart="1240" departSpeed="10" departLane="best"/>
   <vehicle id="E2W_218" type="ego_car" route="E2W" depart="1243" departSpeed="10" departLane="best"/>
   <vehicle id="W2E_219" type="ego_car" route="W2E" depart="1247" departSpeed="10" departLane="best"/>
   <vehicle id="N2S_220" type="ego_car" route="N2S" depart="1248" departSpeed="10" departLane="best"/>
   <vehicle id="S2N_221" type="ego_car" route="S2N" depart="1249" departSpeed="10" departLane="best"/>
   <vehicle id="W2E_222" type="ego_car" route="W2E" depart="1259" departSpeed="10" departLane="best"/>
   <vehicle id="W2E_223" type="ego_car" route="W2E" depart="1261" departSpeed="10" departLane="best"/>
   <vehicle id="E2W_224" type="ego_car" route="E2W" depart="1264" departSpeed="10" departLane="best"/>
   <vehicle id="W2E_225" type="ego_car" route="W2E" depart="1265" departSpeed="10" departLane="best"/>
   <vehicle id="E2W_226" type="ego_car" route="E2W" depart="1267" departSpeed="10" departLane="best"/>
   <vehicle id="N2S_227" type="ego_car" route="N2S" depart="1268" departSpeed="10" departLane="best"/>
   <vehicle id="N2S_228" type="ego_car" route="N2S" depart="1269" departSpeed="10" departLane="best"/>
   <vehicle id="S2N_229" type="ego_car" route="S2N" depart="1274" departSpeed="10" departLane="best"/>
   <vehicle id="W2E_230" type="ego_car" route="W2E" depart="1277" departSpeed="10" departLane="best"/>
   <vehicle id="N2S_231" type="ego_car" route="N2S" depart="1278" departSpeed="10" departLane="best"/>
   <vehicle id="W2E_232" type="ego_car" route="W2E" depart="1292" departSpeed="10" departLane="best"/>
   <vehicle id="W2E_233" type="ego_car" route="W2E" depart="1309" departSpeed="10" departLane="best"/>
   <vehicle id="N2S_234" type="ego_car" route="N2S" depart="1309" departSpeed="10" departLane="best"/>
   <vehicle id="S2N_235" type="ego_car" route="S2N" depart="1317" departSpeed="10" departLane="best"/>
   <vehicle id="W2E_236" type="ego_car" route="W2E" depart="1318" departSpeed="10" departLane="best"/>
   <vehicle id="E2W_237" type="ego_car" route="E2W" depart="1326" departSpeed="10" departLane="best"/>
   <vehicle id="W2E_238" type="ego_car" route="W2E" depart="1327" departSpeed="10" departLane="best"/>
   <vehicle id="E2W_239" type="ego_car" route="E2W" depart="1331" departSpeed="10" departLane="best"/>
   <vehicle id="S2N_240" type="ego_car" route="S2N" depart="1336" departSpeed="10" departLane="best"/>
   <vehicle id="N2S_241" type="ego_car" route="N2S" depart="1337" departSpeed="10" departLane="best"/>
   <vehicle id="W2E_242" type="ego_car" route="W2E" depart="1341" departSpeed="10" departLane="best"/>
   <vehicle id="W2E_243" type="ego_car" route="W2E" depart="1348" departSpeed="10" departLane="best"/>
   <vehicle id="E2W_244" type="ego_car" route="E2W" depart="1353" departSpeed="10" departLane="best"/>
   <vehicle id="W2E_245" type="ego_car" route="W2E" depart="1354" departSpeed="10" departLane="best"/>
   <vehicle id="S2N_246" type="ego_car" route="S2N" depart="1357" departSpeed="10" departLane="best"/>
   <vehicle id="E2W_247" type="ego_car" route="E2W" depart="1360" departSpeed="10" departLane="best"/>
   <vehicle id="E2W_248" type="ego_car" route="E2W" depart="1360" departSpeed="10" departLane="best"/>
   <vehicle id="S2N_249" type="ego_car" route="S2N" depart="1361" departSpeed="10" departLane="best"/>
   <vehicle id="N2S_250" type="ego_car" route="N2S" depart="1372" departSpeed="10" departLane="best"/>
   <vehicle id="W2E_251" type="ego_car" route="W2E" depart="1376" departSpeed="10" departLane="best"/>
   <vehicle id="N2S_252" type="ego_car" route="N2S" depart="1378" departSpeed="10" departLane="best"/>
   <vehicle id="S2N_253" type="ego_car" route="S2N" depart="1379" departSpeed="10" departLane="best"/>
   <vehicle id="E2W_254" type="ego_car" route="E2W" depart="1385" departSpeed="10" departLane="best"/>
   <vehicle id="W2E_255" type="ego_car" route="W2E" depart="1385" departSpeed="10" departLane="best"/>
   <vehicle id="W2E_256" type="ego_car" route="W2E" depart="1388" departSpeed="10" departLane="best"/>
   <vehicle id="N2S_257" type="ego_car" route="N2S" depart="1389" departSpeed="10" departLane="best"/>
   <vehicle id="N2S_258" type="ego_car" route="N2S" depart="1391" departSpeed="10" departLane="best"/>
   <vehicle id="E2W_259" type="ego_car" route="E2W" depart="1405" departSpeed="10" departLane="best"/>
   <vehicle id="W2E_260" type="ego_car" route="W2E" depart="1409" departSpeed="10" departLane="best"/>
   <vehicle id="N2S_261" type="ego_car" route="N2S" depart="1409" departSpeed="10" departLane="best"/>
   <vehicle id="E2W_262" type="ego_car" route="E2W" depart="1413" departSpeed="10" departLane="best"/>
   <vehicle id="W2E_263" type="ego_car" route="W2E" depart="1414" departSpeed="10" departLane="best"/>
   <vehicle id="E2W_264" type="ego_car" route="E2W" depart="1415" departSpeed="10" departLane="best"/>
   <vehicle id="E2W_265" type="ego_car" route="E2W" depart="1419" departSpeed="10" departLane="best"/>
   <vehicle id="N2S_266" type="ego_car" route="N2S" depart="1427" departSpeed="10" departLane="best"/>
   <vehicle id="S2N_267" type="ego_car" route="S2N" depart="1428" departSpeed="10" departLane="best"/>
   <vehicle id="E2W_268" type="ego_car" route="E2W" depart="1435" departSpeed="10" departLane="best"/>
   <vehicle id="S2N_269" type="ego_car" route="S2N" depart="1436" departSpeed="10" departLane="best"/>
   <vehicle id="W2E_270" type="ego_car" route="W2E" depart="1436" departSpeed="10" departLane="best"/>
   <vehicle id="N2S_271" type="ego_car" route="N2S" depart="1437" departSpeed="10" departLane="best"/>
   <vehicle id="S2N_272" type="ego_car" route="S2N" depart="1438" departSpeed="10" departLane="best"/>
   <vehicle id="S2N_273" type="ego_car" route="S2N" depart="1438" departSpeed="10" departLane="best"/>
   <vehicle id="E2W_274" type="ego_car" route="E2W" depart="1442" departSpeed="10" departLane="best"/>
   <vehicle id="S2N_275" type="ego_car" route="S2N" depart="1452" departSpeed="10" departLane="best"/>
   <vehicle id="S2N_276" type="ego_car" route="S2N" depart="1457" departSpeed="10" departLane="best"/>
   <vehicle id="E2W_277" type="ego_car" route="E2W" depart="1461" departSpeed="10" departLane="best"/>
   <vehicle id="W2E_278" type="ego_car" route="W2E" depart="1464" departSpeed="10" departLane="best"/>
   <vehicle id="W2E_279" type="ego_car" route="W2E" depart="1470" departSpeed="10" departLane="best"/>
   <vehicle id="E2W_280" type="ego_car" route="E2W" depart="1478" departSpeed="10" departLane="best"/>
   <vehicle id="W2E_281" type="ego_car" route="W2E" depart="1487" departSpeed="10" departLane="best"/>
   <vehicle id="N2S_282" type="ego_car" route="N2S" depart="1490" departSpeed="10" departLane="best"/>
   <vehicle id="E2W_283" type="ego_car" route="E2W" depart="1491" departSpeed="10" departLane="best"/>
   <vehicle id="S2N_284" type="ego_car" route="S2N" depart="1498" departSpeed="10" departLane="best"/>
   <vehicle id="E2W_285" type="ego_car" route="E2W" depart="1503" departSpeed="10" departLane="best"/>
   <vehicle id="W2E_286" type="ego_car" route="W2E" depart="1504" departSpeed="10" departLane="best"/>
   <vehicle id="E2W_287" type="ego_car" route="E2W" depart="1506" departSpeed="10" departLane="best"/>
   <vehicle id="S2N_288" type="ego_car" route="S2N" depart="1513" departSpeed="10" departLane="best"/>
   <vehicle id="S2N_289" type="ego_car" route="S2N" depart="1519" departSpeed="10" departLane="best"/>
   <vehicle id="E2W_290" type="ego_car" route="E2W" depart="1526" departSpeed="10" departLane="best"/>