<routes>

        <vType id = 'ego_car' vclass="evehicle" emissionClass="Energy" tau="1.5" accel="3.0" decel="3.0" color="#00FFFF" sigma="0.2" length="4.90" minGap="1.0" maxSpeed="20" carFollowing="IDM" guiShape="passenger"/>

        <route id="N2S" edges="NS -SN"/>
        <route id="S2N" edges="SN -NS"/>
        <route id="W2E" edges="WE -EW"/>
        <route id="E2W" edges="EW -WE"/>
   <vehicle id="W2E_1" type="ego_car" route="W2E" depart="21" departSpeed="10" departLane="best"/>
   <vehicle id="W2E_2" type="ego_car" route="W2E" depart="33" departSpeed="10" departLane="best"/>
   <vehicle id="N2S_3" type="ego_car" route="N2S" depart="71" departSpeed="10" departLane="best"/>
   <vehicle id="E2W_4" type="ego_car" route="E2W" depart="77" departSpeed="10" departLane="best"/>
   <vehicle id="N2S_5" type="ego_car" route="N2S" depart="82" departSpeed="10" departLane="best"/>
   <vehicle id="W2E_6" type="ego_car" route="W2E" depart="119" departSpeed="10" departLane="best"/>
   <vehicle id="N2S_7" type="ego_car" route="N2S" depart="120" departSpeed="10" departLane="best"/>
   <vehicle id="S2N_8" type="ego_car" route="S2N" depart="136" departSpeed="10" departLane="best"/>
   <vehicle id="N2S_9" type="ego_car" route="N2S" depart="138" departSpeed="10" departLane="best"/>
   <vehicle id="W2E_10" type="ego_car" route="W2E" depart="161" departSpeed="10" departLane="best"/>
   <vehicle id="W2E_11" type="ego_car" route="W2E" depart="196" departSpeed="10" departLane="best"/>
   <vehicle id="E2W_12" type="ego_car" route="E2W" depart="210" departSpeed="10" departLane="best"/>
   <vehicle id="E2W_13" type="ego_car" route="E2W" depart="239" departSpeed="10" departLane="best"/>
   <vehicle id="S2N_14" type="ego_car" route="S2N" depart="252" departSpeed="10" departLane="best"/>
   <vehicle id="N2S_15" type="ego_car" route="N2S" depart="259" departSpeed="10" departLane="best"/>
   <vehicle id="E2W_16" type="ego_car" route="E2W" depart="307" departSpeed="10" departLane="best"/>
   <vehicle id="E2W_17" type="ego_car" route="E2W" depart="314" departSpeed="10" departLane="best"/>
   <vehicle id="S2N_18" type="ego_car" route="S2N" depart="315" departSpeed="10" departLane="best"/>
   <vehicle id="E2W_19" type="ego_car" route="E2W" depart="319" departSpeed="10" departLane="best"/>
   <vehicle id="N2S_20" type="ego_car" route="N2S" depart="322" departSpeed="10" departLane="best"/>
   <vehicle id="S2N_21" type="ego_car" route="S2N" depart="326" departSpeed="10" departLane="best"/>
   <vehicle id="N2S_22" type="ego_car" route="N2S" depart="332" departSpeed="10" departLane="best"/>
   <vehicle id="S2N_23" type="ego_car" route="S2N" depart="336" departSpeed="10" departLane="best"/>
   <vehicle id="N2S_24" type="ego_car" route="N2S" depart="341" departSpeed="10" departLane="best"/>
   <vehicle id="S2N_25" type="ego_car" route="S2N" depart="356" departSpeed="10" departLane="best"/>
   <vehicle id="N2S_26" type="ego_car" route="N2S" depart="370" departSpeed="10" departLane="best"/>
   <vehicle id="E2W_27" type="ego_car" route="E2W" depart="379" departSpeed="10" departLane="best"/>
   <vehicle id="S2N_28" type="ego_car" route="S2N" depart="383" departSpeed="10" departLane="best"/>
   <vehicle id="W2E_29" type="ego_car" route="W2E" depart="385" departSpeed="10" departLane="best"/>
   <vehicle id="N2S_30" type="ego_car" route="N2S" depart="393" departSpeed="10" departLane="best"/>
   <vehicle id="S2N_31" type="ego_car" route="S2N" depart="396" departSpeed="10" departLane="best"/>
   <vehicle id="S2N_32" type="ego_car" route="S2N" depart="405" departSpeed="10" departLane="best"/>
   <vehicle id="N2S_33" type="ego_car" route="N2S" depart="405" departSpeed="10" departLane="best"/>
   <vehicle id="N2S_34" type="ego_car" route="N2S" depart="417" departSpeed="10" departLane="best"/>
   <vehicle id="N2S_35" type="ego_car" route="N2S" depart="419" departSpeed="10" departLane="best"/>
   <vehicle id="N2S_36" type="ego_car" route="N2S" depart="420" departSpeed="10" departLane="best"/>
   <vehicle id="N2S_37" type="ego_car" route="N2S" depart="422" departSpeed="10" departLane="best"/>
   <vehicle id="N2S_38" type="ego_car" route="N2S" depart="425" departSpeed="10" departLane="best"/>
   <vehicle id="W2E_39" type="ego_car" route="W2E" depart="433" departSpeed="10" departLane="best"/>
   <vehicle id="S2N_40" type="ego_car" route="S2N" depart="433" departSpeed="10" departLane="best"/>
   <vehicle id="S2N_41" type="ego_car" route="S2N" depart="437" departSpeed="10" departLane="best"/>
   <vehicle id="S2N_42" type="ego_car" route="S2N" depart="439" departSpeed="10" departLane="best"/>
   <vehicle id="N2S_43" type="ego_car" route="N2S" depart="446" departSpeed="10" departLane="best"/>
   <vehicle id="E2W_44" type="ego_car" route="E2W" depart="457" departSpeed="10" departLane="best"/>
   <vehicle id="E2W_45" type="ego_car" route="E2W" depart="465" departSpeed="10" departLane="best"/>
   <vehicle id="N2S_46" type="ego_car" route="N2S" depart="467" departSpeed="10" departLane="best"/>
   <vehicle id="W2E_47" type="ego_car" route="W2E" depart="473" departSpeed="10" departLane="best"/>
   <vehicle id="N2S_48" type="ego_car" route="N2S" depart="476" departSpeed="10" departLane="best"/>
   <vehicle id="S2N_49" type="ego_car" route="S2N" depart="483" departSpeed="10" departLane="best"/>
   <vehicle id="N2S_50" type="ego_car" route="N2S" depart="489" departSpeed="10" departLane="best"/>
   <vehicle id="N2S_51" type="ego_car" route="N2S" depart="492" departSpeed="10" departLane="best"/>
   <vehicle id="S2N_52" type="ego_car" route="S2N" depart="494" departSpeed="10" departLane="best"/>
   <vehicle id="N2S_53" type="ego_car" route="N2S" depart="496" departSpeed="10" departLane="best"/>
   <vehicle id="E2W_54" type="ego_car" route="E2W" depart="504" departSpeed="10" departLane="best"/>
   <vehicle id="W2E_55" type="ego_car" route="W2E" depart="507" departSpeed="10" departLane="best"/>
   <vehicle id="S2N_56" type="ego_car" route="S2N" depart="509" departSpeed="10" departLane="best"/>
   <vehicle id="S2N_57" type="ego_car" route="S2N" depart="511" departSpeed="10" departLane="best"/>
   <vehicle id="N2S_58" type="ego_car" route="N2S" depart="511" departSpeed="10" departLane="best"/>
   <vehicle id="N2S_59" type="ego_car" route="N2S" depart="517" departSpeed="10" departLane="best"/>
   <vehicle id="E2W_60" type="ego_car" route="E2W" depart="521" departSpeed="10" departLane="best"/>
   <vehicle id="N2S_61" type="ego_car" route="N2S" depart="522" departSpeed="10" departLane="best"/>
   <vehicle id="S2N_62" type="ego_car" route="S2N" depart="523" departSpeed="10" departLane="best"/>
   <vehicle id="S2N_63" type="ego_car" route="S2N" depart="531" departSpeed="10" departLane="best"/>
   <vehicle id="S2N_64" type="ego_car" route="S2N" depart="541" departSpeed="10" departLane="best"/>
   <vehicle id="N2S_65" type="ego_car" route="N2S" depart="548" departSpeed="10" departLane="best"/>
   <vehicle id="S2N_66" type="ego_car" route="S2N" depart="554" departSpeed="10" departLane="best"/>
   <vehicle id="S2N_67" type="ego_car" route="S2N" depart="557" departSpeed="10" departLane="best"/>
   <vehicle id="W2E_68" type="ego_car" route="W2E" depart="569" departSpeed="10" departLane="best"/>
   <vehicle id="S2N_69" type="ego_car" route="S2N" depart="571" departSpeed="10" departLane="best"/>
   <vehicle id="W2E_70" type="ego_car" route="W2E" depart="582" departSpeed="10" departLane="best"/>
   <vehicle id="W2E_71" type="ego_car" route="W2E" depart="594" departSpeed="10" departLane="best"/>
   <vehicle id="E2W_72" type="ego_car" route="E2W" depart="603" departSpeed="10" departLane="best"/>
   <vehicle id="E2W_73" type="ego_car" route="E2W" depart="603" departSpeed="10" departLane="best"/>
   <vehicle id="S2N_74" type="ego_car" route="S2N" depart="604" departSpeed="10" departLane="best"/>
   <vehicle id="N2S_75" type="ego_car" route="N2S" depart="605" departSpeed="10" departLane="best"/>
   <vehicle id="E2W_76" type="ego_car" route="E2W" depart="607" departSpeed="10" departLane="best"/>
   <vehicle id="W2E_77" type="ego_car" route="W2E" depart="610" departSpeed="10" departLane="best"/>
   <vehicle id="S2N_78" type="ego_car" route="S2N" depart="613" departSpeed="10" departLane="best"/>
   <vehicle id="E2W_79" type="ego_car" route="E2W" depart="623" departSpeed="10" departLane="best"/>
   <vehicle id="W2E_80" type="ego_car" route="W2E" depart="625" departSpeed="10" departLane="best"/>
   <vehicle id="S2N_81" type="ego_car" route="S2N" depart="628" departSpeed="10" departLane="best"/>
   <vehicle id="N2S_82" type="ego_car" route="N2S" depart="636" departSpeed="10" departLane="best"/>
   <vehicle id="W2E_83" type="ego_car" route="W2E" depart="637" departSpeed="10" departLane="best"/>
   <vehicle id="W2E_84" type="ego_car" route="W2E" depart="642" departSpeed="10" departLane="best"/>
   <vehicle id="S2N_85" type="ego_car" route="S2N" depart="647" departSpeed="10" departLane="best"/>
   <vehicle id="W2E_86" type="ego_car" route="W2E" depart="648" departSpeed="10" departLane="best"/>
   <vehicle id="S2N_87" type="ego_car" route="S2N" depart="660" departSpeed="10" departLane="best"/>
   <vehicle id="W2E_88" type="ego_car" route="W2E" depart="677" departSpeed="10" departLane="best"/>
   <vehicle id="N2S_89" type="ego_car" route="N2S" depart="698" departSpeed="10" departLane="best"/>
   <vehicle id="S2N_90" type="ego_car" route="S2N" depart="699" departSpeed="10" departLane="best"/>
   <vehicle id="N2S_91" type="ego_car" route="N2S" depart="700" departSpeed="10" departLane="best"/>
   <vehicle id="E2W_92" type="ego_car" route="E2W" depart="714" departSpeed="10" departLane="best"/>
   <vehicle id="E2W_93" type="ego_car" route="E2W" depart="715" departSpeed="10" departLane="best"/>
   <vehicle id="N2S_94" type="ego_car" route="N2S" depart="716" departSpeed="10" departLane="best"/>
   <vehicle id="N2S_95" type="ego_car" route="N2S" depart="717" departSpeed="10" departLane="best"/>
   <vehicle id="S2N_96" type="ego_car" route="S2N" depart="722" departSpeed="10" departLane="best"/>
   <vehicle id="S2N_97" type="ego_car" route="S2N" depart="726" departSpeed="10" departLane="best"/>
   <vehicle id="S2N_98" type="ego_car" route="S2N" depart="733" departSpeed="10" departLane="best"/>
   <vehicle id="N2S_99" type="ego_car" route="N2S" depart="735" departSpeed="10" departLane="best"/>
   <vehicle id="S2N_100" type="ego_car" route="S2N" depart="737" departSpeed="10" departLane="best"/>
   <vehicle id="E2W_101" type="ego_car" route="E2W" depart="738" departSpeed="10" departLane="best"/>
   <vehicle id="W2E_102" type="ego_car" route="W2E" depart="742" departSpeed="10" departLane="best"/>
   <vehicle id="N2S_103" type="ego_car" route="N2S" depart="742" departSpeed="10" departLane="best"/>
   <vehicle id="E2W_104" type="ego_car" route="E2W" depart="752" departSpeed="10" departLane="best"/>
   <vehicle id="E2W_105" type="ego_car" route="E2W" depart="757" departSpeed="10" departLane="best"/>
   <vehicle id="N2S_106" type="ego_car" route="N2S" depart="762" departSpeed="10" departLane="best"/>
   <vehicle id="S2N_107" type="ego_car" route="S2N" depart="764" departSpeed="10" departLane="best"/>
   <vehicle id="W2E_108" type="ego_car" route="W2E" depart="766" departSpeed="10" departLane="best"/>
   <vehicle id="S2N_109" type="ego_car" route="S2N" depart="766" departSpeed="10" departLane="best"/>
   <vehicle id="W2E_110" type="ego_car" route="W2E" depart="767" departSpeed="10" departLane="best"/>
   <vehicle id="W2E_111" type="ego_car" route="W2E" depart="767" departSpeed="10" departLane="best"/>
   <vehicle id="E2W_112" type="ego_car" route="E2W" depart="769" departSpeed="10" departLane="best"/>
   <vehicle id="S2N_113" type="ego_car" route="S2N" depart="769" departSpeed="10" departLane="best"/>
   <vehicle id="S2N_114" type="ego_car" route="S2N" depart="769" departSpeed="10" departLane="best"/>
   <vehicle id="W2E_115" type="ego_car" route="W2E" depart="774" departSpeed="10" departLane="best"/>
   <vehicle id="E2W_116" type="ego_car" route="E2W" depart="777" departSpeed="10" departLane="best"/>
   <vehicle id="W2E_117" type="ego_car" route="W2E" depart="794" departSpeed="10" departLane="best"/>
   <vehicle id="W2E_118" type="ego_car" route="W2E" depart="795" departSpeed="10" departLane="best"/>
   <vehicle id="N2S_119" type="ego_car" route="N2S" depart="795" departSpeed="10" departLane="best"/>
   <vehicle id="S2N_120" type="ego_car" route="S2N" depart="804" departSpeed="10" departLane="best"/>
   <vehicle id="S2N_121" type="ego_car" route="S2N" depart="807" departSpeed="10" departLane="best"/>
   <vehicle id="W2E_122" type="ego_car" route="W2E" depart="808" departSpeed="10" departLane="best"/>
   <vehicle id="N2S_123" type="ego_car" route="N2S" depart="811" departSpeed="10" departLane="best"/>
   <vehicle id="N2S_124" type="ego_car" route="N2S" depart="813" departSpeed="10" departLane="best"/>
   <vehicle id="N2S_125" type="ego_car" route="N2S" depart="821" departSpeed="10" departLane="best"/>
   <vehicle id="W2E_126" type="ego_car" route="W2E" depart="828" departSpeed="10" departLane="best"/>
   <vehicle id="S2N_127" type="ego_car" route="S2N" depart="834" departSpeed="10" departLane="best"/>
   <vehicle id="W2E_128" type="ego_car" route="W2E" depart="840" departSpeed="10" departLane="best"/>
   <vehicle id="E2W_129" type="ego_car" route="E2W" depart="844" departSpeed="10" departLane="best"/>
   <vehicle id="N2S_130" type="ego_car" route="N2S" depart="846" departSpeed="10" departLane="best"/>
   <vehicle id="E2W_131" type="ego_car" route="E2W" depart="850" departSpeed="10" departLane="best"/>
   <vehicle id="E2W_132" type="ego_car" route="E2W" depart="850" departSpeed="10" departLane="best"/>
   <vehicle id="S2N_133" type="ego_car" route="S2N" depart="851" departSpeed="10" departLane="best"/>
   <vehicle id="W2E_134" type="ego_car" route="W2E" depart="855" departSpeed="10" departLane="best"/>
   <vehicle id="N2S_135" type="ego_car" route="N2S" depart="856" departSpeed="10" departLane="best"/>
   <vehicle id="W2E_136" type="ego_car" route="W2E" depart="858" departSpeed="10" departLane="best"/>
   <vehicle id="N2S_137" type="ego_car" route="N2S" depart="859" departSpeed="10" departLane="best"/>
   <vehicle id="W2E_138" type="ego_car" route="W2E" depart="860" departSpeed="10" departLane="best"/>
   <vehicle id="W2E_139" type="ego_car" route="W2E" depart="862" departSpeed="10" departLane="best"/>
   <vehicle id="N2S_140" type="ego_car" route="N2S" depart="862" departSpeed="10" departLane="best"/>
   <vehicle id="N2S_141" type="ego_car" route="N2S" depart="863" departSpeed="10" departLane="best"/>
   <vehicle id="W2E_142" type="ego_car" route="W2E" depart="871" departSpeed="10" departLane="best"/>
   <vehicle id="W2E_143" type="ego_car" route="W2E" depart="881" departSpeed="10" departLane="best"/>
   <vehicle id="E2W_144" type="ego_car" route="E2W" depart="886" departSpeed="10" departLane="best"/>
   <vehicle id="E2W_145" type="ego_car" route="E2W" depart="886" departSpeed="10" departLane="best"/>
   <vehicle id="N2S_146" type="ego_car" route="N2S" depart="887" departSpeed="10" departLane="best"/>
   <vehicle id="W2E_147" type="ego_car" route="W2E" depart="895" departSpeed="10" departLane="best"/>
   <vehicle id="S2N_148" type="ego_car" route="S2N" depart="899" departSpeed="10" departLane="best"/>
   <vehicle id="N2S_149" type="ego_car" route="N2S" depart="903" departSpeed="10" departLane="best"/>
   <vehicle id="E2W_150" type="ego_car" route="E2W" depart="906" departSpeed="10" departLane="best"/>
   <vehicle id="E2W_151" type="ego_car" route="E2W" depart="906" departSpeed="10" departLane="best"/>
   <vehicle id="N2S_152" type="ego_car" route="N2S" depart="912" departSpeed="10" departLane="best"/>
   <vehicle id="N2S_153" type="ego_car" route="N2S" depart="914" departSpeed="10" departLane="best"/>
   <vehicle id="W2E_154" type="ego_car" route="W2E" depart="917" departSpeed="10" departLane="best"/>
   <vehicle id="N2S_155" type="ego_car" route="N2S" depart="918" departSpeed="10" departLane="best"/>
   <vehicle id="W2E_156" type="ego_car" route="W2E" depart="919" departSpeed="10" departLane="best"/>
   <vehicle id="W2E_157" type="ego_car" route="W2E" depart="921" departSpeed="10" departLane="best"/>
   <vehicle id="W2E_158" type="ego_car" route="W2E" depart="928" departSpeed="10" departLane="best"/>
   <vehicle id="N2S_159" type="ego_car" route="N2S" depart="928" departSpeed="10" departLane="best"/>
   <vehicle id="S2N_160" type="ego_car" route="S2N" depart="936" departSpeed="10" departLane="best"/>
   <vehicle id="W2E_161" type="ego_car" route="W2E" depart="939" departSpeed="10" departLane="best"/>
   <vehicle id="E2W_162" type="ego_car" route="E2W" depart="941" departSpeed="10" departLane="best"/>
   <vehicle id="S2N_163" type="ego_car" route="S2N" depart="942" departSpeed="10" departLane="best"/>
   <vehicle id="S2N_164" type="ego_car" route="S2N" depart="947" departSpeed="10" departLane="best"/>
   <vehicle id="E2W_165" type="ego_car" route="E2W" depart="950" departSpeed="10" departLane="best"/>
   <vehicle id="E2W_166" type="ego_car" route="E2W" depart="952" departSpeed="10" departLane="best"/>
   <vehicle id="S2N_167" type="ego_car" route="S2N" depart="956" departSpeed="10" departLane="best"/>
   <vehicle id="S2N_168" type="ego_car" route="S2N" depart="970" departSpeed="10" departLane="best"/>
   <vehicle id="N2S_169" type="ego_car" route="N2S" depart="980" departSpeed="10" departLane="best"/>
   <vehicle id="S2N_170" type="ego_car" route="S2N" depart="984" departSpeed="10" departLane="best"/>
   <vehicle id="E2W_171" type="ego_car" route="E2W" depart="985" departSpeed="10" departLane="best"/>
   <vehicle id="E2W_172" type="ego_car" route="E2W" depart="986" departSpeed="10" departLane="best"/>
   <vehicle id="W2E_173" type="ego_car" route="W2E" depart="986" departSpeed="10" departLane="best"/>
   <vehicle id="W2E_174" type="ego_car" route="W2E" depart="989" departSpeed="10" departLane="best"/>
   <vehicle id="N2S_175" type="ego_car" route="N2S" depart="994" departSpeed="10" departLane="best"/>
   <vehicle id="S2N_176" type="ego_car" route="S2N" depart="996" departSpeed="10" departLane="best"/>
   <vehicle id="N2S_177" type="ego_car" route="N2S" depart="1002" departSpeed="10" departLane="best"/>
   <vehicle id="S2N_178" type="ego_car" route="S2N" depart="1011" departSpeed="10" departLane="best"/>
   <vehicle id="N2S_179" type="ego_car" route="N2S" depart="1012" departSpeed="10" departLane="best"/>
   <vehicle id="W2E_180" type="ego_car" route="W2E" depart="1017" departSpeed="10" departLane="best"/>
   <vehicle id="S2N_181" type="ego_car" route="S2N" depart="1017" departSpeed="10" departLane="best"/>
   <vehicle id="E2W_182" type="ego_car" route="E2W" depart="1020" departSpeed="10" departLane="best"/>
   <vehicle id="W2E_183" type="ego_car" route="W2E" depart="1023" departSpeed="10" departLane="best"/>
   <vehicle id="W2E_184" type="ego_car" route="W2E" depart="1025" departSpeed="10" departLane="best"/>
   <vehicle id="N2S_185" type="ego_car" route="N2S" depart="1029" departSpeed="10" departLane="best"/>
   <vehicle id="N2S_186" type="ego_car" route="N2S" depart="1045" departSpeed="10" departLane="best"/>
   <vehicle id="E2W_187" type="ego_car" route="E2W" depart="1047" departSpeed="10" departLane="best"/>
   <vehicle id="S2N_188" type="ego_car" route="S2N" depart="1053" departSpeed="10" departLane="best"/>
   <vehicle id="N2S_189" type="ego_car" route="N2S" depart="1058" departSpeed="10" departLane="best"/>
   <vehicle id="S2N_190" type="ego_car" route="S2N" depart="1064" departSpeed="10" departLane="best"/>
   <vehicle id="W2E_191" type="ego_car" route="W2E" depart="1069" departSpeed="10" departLane="best"/>
   <vehicle id="S2N_192" type="ego_car" route="S2N" depart="1070" departSpeed="10" departLane="best"/>
   <vehicle id="E2W_193" type="ego_car" route="E2W" depart="1073" departSpeed="10" departLane="best"/>
   <vehicle id="W2E_194" type="ego_car" route="W2E" depart="1074" departSpeed="10" departLane="best"/>
   <vehicle id="S2N_195" type="ego_car" route="S2N" depart="1077" departSpeed="10" departLane="best"/>
   <vehicle id="S2N_196" type="ego_car" route="S2N" depart="1078" departSpeed="10" departLane="best"/>
   <vehicle id="S2N_197" type="ego_car" route="S2N" depart="1088" departSpeed="10" departLane="best"/>
   <vehicle id="E2W_198" type="ego_car" route="E2W" depart="1089" departSpeed="10" departLane="best"/>
   <vehicle id="N2S_199" type="ego_car" route="N2S" depart="1090" departSpeed="10" departLane="best"/>
   <vehicle id="N2S_200" type="ego_car" route="N2S" depart="1107" departSpeed="10" departLane="best"/>
   <vehicle id="N2S_201" type="ego_car" route="N2S" depart="1109" departSpeed="10" departLane="best"/>
   <vehicle id="S2N_202" type="ego_car" route="S2N" depart="1111" departSpeed="10" departLane="best"/>
   <vehicle id="W2E_203" type="ego_car" route="W2E" depart="1113" departSpeed="10" departLane="best"/>
   <vehicle id="E2W_204" type="ego_car" route="E2W" depart="1123" departSpeed="10" departLane="best"/>
   <vehicle id="S2N_205" type="ego_car" route="S2N" depart="1124" departSpeed="10" departLane="best"/>
   <vehicle id="E2W_206" type="ego_car" route="E2W" depart="1125" departSpeed="10" departLane="best"/>
   <vehicle id="W2E_207" type="ego_car" route="W2E" depart="1131" departSpeed="10" departLane="best"/>
   <vehicle id="E2W_208" type="ego_car" route="E2W" depart="1133" departSpeed="10" departLane="best"/>
   <vehicle id="N2S_209" type="ego_car" route="N2S" depart="1140" departSpeed="10" departLane="best"/>
   <vehicle id="W2E_210" type="ego_car" route="W2E" depart="1145" departSpeed="10" departLane="best"/>
   <vehicle id="W2E_211" type="ego_car" route="W2E" depart="1146" departSpeed="10" departLane="best"/>
   <vehicle id="W2E_212" type="ego_car" route="W2E" depart="1150" departSpeed="10" departLane="best"/>
   <vehicle id="E2W_213" type="ego_car" route="E2W" depart="1152" departSpeed="10" departLane="best"/>
   <vehicle id="W2E_214" type="ego_car" route="W2E" depart="1160" departSpeed="10" departLane="best"/>
   <vehicle id="E2W_215" type="ego_car" route="E2W" depart="1161" departSpeed="10" departLane="best"/>
   <vehicle id="S2N_216" type="ego_car" route="S2N" depart="1170" departSpeed="10" departLane="best"/>
   <vehicle id="E2W_217" type="ego_car" route="E2W" depart="1183" departSpeed="10" departLane="best"/>
   <vehicle id="S2N_218" type="ego_car" route="S2N" depart="1184" departSpeed="10" departLane="best"/>
   <vehicle id="S2N_219" type="ego_car" route="S2N" depart="1190" departSpeed="10" departLane="best"/>
   <vehicle id="E2W_220" type="ego_car" route="E2W" depart="1218" departSpeed="10" departLane="best"/>
   <vehicle id="W2E_221" type="ego_car" route="W2E" depart="1224" departSpeed="10" departLane="best"/>
   <vehicle id="W2E_222" type="ego_car" route="W2E" depart="1231" departSpeed="10" departLane="best"/>
   <vehicle id="W2E_223" type="ego_car" route="W2E" depart="1236" departSpeed="10" departLane="best"/>
   <vehicle id="N2S_224" type="ego_car" route="N2S" depart="1238" departSpeed="10" departLane="best"/>
   <vehicle id="N2S_225" type="ego_car" route="N2S" depart="1241" departSpeed="10" departLane="best"/>
   <vehicle id="W2E_226" type="ego_car" route="W2E" depart="1244" departSpeed="10" departLane="best"/>
   <vehicle id="N2S_227" type="ego_car" route="N2S" depart="1245" departSpeed="10" departLane="best"/>
   <vehicle id="S2N_228" type="ego_car" route="S2N" depart="1246" departSpeed="10" departLane="best"/>
   <vehicle id="S2N_229" type="ego_car" route="S2N" depart="1248" departSpeed="10" departLane="best"/>
   <vehicle id="N2S_230" type="ego_car" route="N2S" depart="1254" departSpeed="10" departLane="best"/>
   <vehicle id="N2S_231" type="ego_car" route="N2S" depart="1254" departSpeed="10" departLane="best"/>
   <vehicle id="W2E_232" type="ego_car" route="W2E" depart="1255" departSpeed="10" departLane="best"/>
   <vehicle id="E2W_233" type="ego_car" route="E2W" depart="1262" departSpeed="10" departLane="best"/>
   <vehicle id="S2N_234" type="ego_car" route="S2N" depart="1262" departSpeed="10" departLane="best"/>
   <vehicle id="N2S_235" type="ego_car" route="N2S" depart="1263" departSpeed="10" departLane="best"/>
   <vehicle id="S2N_236" type="ego_car" route="S2N" depart="1269" departSpeed="10" departLane="best"/>
   <vehicle id="E2W_237" type="ego_car" route="E2W" depart="1277" departSpeed="10" departLane="best"/>
   <vehicle id="E2W_238" type="ego_car" route="E2W" depart="1279" departSpeed="10" departLane="best"/>
   <vehicle id="S2N_239" type="ego_car" route="S2N" depart="1280" departSpeed="10" departLane="best"/>
   <vehicle id="W2E_240" type="ego_car" route="W2E" depart="1284" departSpeed="10" departLane="best"/>
   <vehicle id="W2E_241" type="ego_car" route="W2E" depart="1286" departSpeed="10" departLane="best"/>
   <vehicle id="W2E_242" type="ego_car" route="W2E" depart="1289" departSpeed="10" departLane="best"/>
   <vehicle id="W2E_243" type="ego_car" route="W2E" depart="1310" departSpeed="10" departLane="best"/>
   <vehicle id="N2S_244" type="ego_car" route="N2S" depart="1310" departSpeed="10" departLane="best"/>
   <vehicle id="E2W_245" type="ego_car" route="E2W" depart="1311" departSpeed="10" departLane="best"/>
   <vehicle id="N2S_246" type="ego_car" route="N2S" depart="1313" departSpeed="10" departLane="best"/>
   <vehicle id="S2N_247" type="ego_car" route="S2N" depart="1318" departSpeed="10" departLane="best"/>
   <vehicle id="W2E_248" type="ego_car" route="W2E" depart="1328" departSpeed="10" departLane="best"/>
   <vehicle id="W2E_249" type="ego_car" route="W2E" depart="1328" departSpeed="10" departLane="best"/>
   <vehicle id="W2E_250" type="ego_car" route="W2E" depart="1330" departSpeed="10" departLane="best"/>
   <vehicle id="S2N_251" type="ego_car" route="S2N" depart="1334" departSpeed="10" departLane="best"/>
   <vehicle id="W2E_252" type="ego_car" route="W2E" depart="1338" departSpeed="10" departLane="best"/>
   <vehicle id="W2E_253" type="ego_car" route="W2E" depart="1339" departSpeed="10" departLane="best"/>
   <vehicle id="S2N_254" type="ego_car" route="S2N" depart="1340" departSpeed="10" departLane="best"/>
   <vehicle id="W2E_255" type="ego_car" route="W2E" depart="1352" departSpeed="10" departLane="best"/>
   <vehicle id="W2E_256" type="ego_car" route="W2E" depart="1354" departSpeed="10" departLane="best"/>
   <vehicle id="E2W_257" type="ego_car" route="E2W" depart="1369" departSpeed="10" departLane="best"/>
   <vehicle id="N2S_258" type="ego_car" route="N2S" depart="1370" departSpeed="10" departLane="best"/>
   <vehicle id="S2N_259" type="ego_car" route="S2N" depart="1373" departSpeed="10" departLane="best"/>
   <vehicle id="S2N_260" type="ego_car" route="S2N" depart="1380" departSpeed="10" departLane="best"/>
   <vehicle id="E2W_261" type="ego_car" route="E2W" depart="1383" departSpeed="10" departLane="best"/>
   <vehicle id="S2N_262" type="ego_car" route="S2N" depart="1385" departSpeed="10" departLane="best"/>
   <vehicle id="W2E_263" type="ego_car" route="W2E" depart="1387" departSpeed="10" departLane="best"/>
   <vehicle id="S2N_264" type="ego_car" route="S2N" depart="1389" departSpeed="10" departLane="best"/>
   <vehicle id="N2S_265" type="ego_car" route="N2S" depart="1397" departSpeed="10" departLane="best"/>
   <vehicle id="E2W_266" type="ego_car" route="E2W" depart="1404" departSpeed="10" departLane="best"/>
   <vehicle id="N2S_267" type="ego_car" route="N2S" depart="1410" departSpeed="10" departLane="best"/>
   <vehicle id="N2S_268" type="ego_car" route="N2S" depart="1411" departSpeed="10" departLane="best"/>
   <vehicle id="N2S_269" type="ego_car" route="N2S" depart="1413" departSpeed="10" departLane="best"/>
   <vehicle id="W2E_270" type="ego_car" route="W2E" depart="1416" departSpeed="10" departLane="best"/>
   <vehicle id="S2N_271" type="ego_car" route="S2N" depart="1417" departSpeed="10" departLane="best"/>
   <vehicle id="S2N_272" type="ego_car" route="S2N" depart="1417" departSpeed="10" departLane="best"/>
   <vehicle id="W2E_273" type="ego_car" route="W2E" depart="1418" departSpeed="10" departLane="best"/>
   <vehicle id="N2S_274" type="ego_car" route="N2S" depart="1421" departSpeed="10" departLane="best"/>
   <vehicle id="E2W_275" type="ego_car" route="E2W" depart="1422" departSpeed="10" departLane="best"/>
   <vehicle id="S2N_276" type="ego_car" route="S2N" depart="1445" departSpeed="10" departLane="best"/>
   <vehicle id="N2S_277" type="ego_car" route="N2S" depart="1447" departSpeed="10" departLane="best"/>
   <vehicle id="W2E_278" type="ego_car" route="W2E" depart="1452" departSpeed="10" departLane="best"/>
   <vehicle id="W2E_279" type="ego_car" route="W2E" depart="1468" departSpeed="10" departLane="best"/>
   <vehicle id="N2S_280" type="ego_car" route="N2S" depart="1470" departSpeed="10" departLane="best"/>
   <vehicle id="W2E_281" type="ego_car" route="W2E" depart="1475" departSpeed="10" departLane="best"/>
   <vehicle id="W2E_282" type="ego_car" route="W2E" depart="1480" departSpeed="10" departLane="best"/>
   <vehicle id="E2W_283" type="ego_car" route="E2W" depart="1487" departSpeed="10" departLane="best"/>
   <vehicle id="W2E_284" type="ego_car" route="W2E" depart="1495" departSpeed="10" departLane="best"/>
   <vehicle id="W2E_285" type="ego_car" route="W2E" depart="1498" departSpeed="10" departLane="best"/>
   <vehicle id="W2E_286" type="ego_car" route="W2E" depart="1499" departSpeed="10" departLane="best"/>
   <vehicle id="W2E_287" type="ego_car" route="W2E" depart="1506" departSpeed="10" departLane="best"/>
   <vehicle id="N2S_288" type="ego_car" route="N2S" depart="1510" departSpeed="10" departLane="best"/>
   <vehicle id="E2W_289" type="ego_car" route="E2W" depart="1512" departSpeed="10" departLane="best"/>
   <vehicle id="N2S_290" type="ego_car" route="N2S" depart="1512" departSpeed="10" departLane="best"/>