<routes>

        <vType id = 'ego_car' vclass="evehicle" emissionClass="Energy" tau="1.5" accel="3.0" decel="3.0" color="#00FFFF" sigma="0.2" length="4.90" minGap="1.0" maxSpeed="20" carFollowing="IDM" guiShape="passenger"/>

        <route id="N2S" edges="NS -SN"/>
        <route id="S2N" edges="SN -NS"/>
        <route id="W2E" edges="WE -EW"/>
        <route id="E2W" edges="EW -WE"/>
   <vehicle id="E2W_1" type="ego_car" route="E2W" depart="83" departSpeed="10" departLane="best"/>
   <vehicle id="N2S_2" type="ego_car" route="N2S" depart="136" departSpeed="10" departLane="best"/>
   <vehicle id="N2S_3" type="ego_car" route="N2S" depart="143" departSpeed="10" departLane="best"/>
   <vehicle id="W2E_4" type="ego_car" route="W2E" depart="147" departSpeed="10" departLane="best"/>
   <vehicle id="W2E_5" type="ego_car" route="W2E" depart="154" departSpeed="10" departLane="best"/>
   <vehicle id="W2E_6" type="ego_car" route="W2E" depart="199" departSpeed="10" departLane="best"/>
   <vehicle id="W2E_7" type="ego_car" route="W2E" depart="199" departSpeed="10" departLane="best"/>
   <vehicle id="N2S_8" type="ego_car" route="N2S" depart="214" departSpeed="10" departLane="best"/>
   <vehicle id="E2W_9" type="ego_car" route="E2W" depart="225" departSpeed="10" departLane="best"/>
   <vehicle id="S2N_10" type="ego_car" route="S2N" depart="248" departSpeed="10" departLane="best"/>
   <vehicle id="E2W_11" type="ego_car" route="E2W" depart="252" departSpeed="10" departLane="best"/>
   <vehicle id="E2W_12" type="ego_car" route="E2W" depart="279" departSpeed="10" departLane="best"/>
   <vehicle id="S2N_13" type="ego_car" route="S2N" depart="281" departSpeed="10" departLane="best"/>
   <vehicle id="E2W_14" type="ego_car" route="E2W" depart="283" departSpeed="10" departLane="best"/>
   <vehicle id="W2E_15" type="ego_car" route="W2E" depart="297" departSpeed="10" departLane="best"/>
   <vehicle id="N2S_16" type="ego_car" route="N2S" depart="302" departSpeed="10" departLane="best"/>
   <vehicle id="S2N_17" type="ego_car" route="S2N" depart="306" departSpeed="10" departLane="best"/>
   <vehicle id="E2W_18" type="ego_car" route="E2W" depart="312" departSpeed="10" departLane="best"/>
   <vehicle id="W2E_19" type="ego_car" route="W2E" depart="314" departSpeed="10" departLane="best"/>
   <vehicle id="E2W_20" type="ego_car" route="E2W" depart="318" departSpeed="10" departLane="best"/>
   <vehicle id="N2S_21" type="ego_car" route="N2S" depart="319" departSpeed="10" departLane="best"/>
   <vehicle id="N2S_22" type="ego_car" route="N2S" depart="326" departSpeed="10" departLane="best"/>
   <vehicle id="E2W_23" type="ego_car" route="E2W" depart="326" departSpeed="10" departLane="best"/>
   <vehicle id="S2N_24" type="ego_car" route="S2N" depart="348" departSpeed="10" departLane="best"/>
   <vehicle id="W2E_25" type="ego_car" route="W2E" depart="355" departSpeed="10" departLane="best"/>
   <vehicle id="E2W_26" type="ego_car" route="E2W" depart="374" departSpeed="10" departLane="best"/>
   <vehicle id="E2W_27" type="ego_car" route="E2W" depart="376" departSpeed="10" departLane="best"/>
   <vehicle id="N2S_28" type="ego_car" route="N2S" depart="384" departSpeed="10" departLane="best"/>
   <vehicle id="N2S_29" type="ego_car" route="N2S" depart="387" departSpeed="10" departLane="best"/>
   <vehicle id="W2E_30" type="ego_car" route="W2E" depart="387" departSpeed="10" departLane="best"/>
   <vehicle id="S2N_31" type="ego_car" route="S2N" depart="388" departSpeed="10" departLane="best"/>
   <vehicle id="S2N_32" type="ego_car" route="S2N" depart="390" departSpeed="10" departLane="best"/>
   <vehicle id="W2E_33" type="ego_car" route="W2E" depart="399" departSpeed="10" departLane="best"/>
   <vehicle id="N2S_34" type="ego_car" route="N2S" depart="411" departSpeed="10" departLane="best"/>
   <vehicle id="E2W_35" type="ego_car" route="E2W" depart="423" departSpeed="10" departLane="best"/>
   <vehicle id="S2N_36" type="ego_car" route="S2N" depart="429" departSpeed="10" departLane="best"/>
   <vehicle id="E2W_37" type="ego_car" route="E2W" depart="434" departSpeed="10" departLane="best"/>
   <vehicle id="E2W_38" type="ego_car" route="E2W" depart="438" departSpeed="10" departLane="best"/>
   <vehicle id="N2S_39" type="ego_car" route="N2S" depart="442" departSpeed="10" departLane="best"/>
   <vehicle id="N2S_40" type="ego_car" route="N2S" depart="442" departSpeed="10" departLane="best"/>
   <vehicle id="E2W_41" type="ego_car" route="E2W" depart="443" departSpeed="10" departLane="best"/>
   <vehicle id="E2W_42" type="ego_car" route="E2W" depart="452" departSpeed="10" departLane="best"/>
   <vehicle id="E2W_43" type="ego_car" route="E2W" depart="454" departSpeed="10" departLane="best"/>
   <vehicle id="S2N_44" type="ego_car" route="S2N" depart="456" departSpeed="10" departLane="best"/>
   <vehicle id="N2S_45" type="ego_car" route="N2S" depart="460" departSpeed="10" departLane="best"/>
   <vehicle id="W2E_46" type="ego_car" route="W2E" depart="461" departSpeed="10" departLane="best"/>
   <vehicle id="N2S_47" type="ego_car" route="N2S" depart="465" departSpeed="10" departLane="best"/>
   <vehicle id="S2N_48" type="ego_car" route="S2N" depart="471" departSpeed="10" departLane="best"/>
   <vehicle id="N2S_49" type="ego_car" route="N2S" depart="473" departSpeed="10" departLane="best"/>
   <vehicle id="E2W_50" type="ego_car" route="E2W" depart="479" departSpeed="10" departLane="best"/>
   <vehicle id="W2E_51" type="ego_car" route="W2E" depart="481" departSpeed="10" departLane="best"/>
   <vehicle id="W2E_52" type="ego_car" route="W2E" depart="491" departSpeed="10" departLane="best"/>
   <vehicle id="N2S_53" type="ego_car" route="N2S" depart="494" departSpeed="10" departLane="best"/>
   <vehicle id="W2E_54" type="ego_car" route="W2E" depart="496" departSpeed="10" departLane="best"/>
   <vehicle id="N2S_55" type="ego_car" route="N2S" depart="497" departSpeed="10" departLane="best"/>
   <vehicle id="W2E_56" type="ego_car" route="W2E" depart="508" departSpeed="10" departLane="best"/>
   <vehicle id="N2S_57" type="ego_car" route="N2S" depart="508" departSpeed="10" departLane="best"/>
   <vehicle id="W2E_58" type="ego_car" route="W2E" depart="511" departSpeed="10" departLane="best"/>
   <vehicle id="W2E_59" type="ego_car" route="W2E" depart="516" departSpeed="10" departLane="best"/>
   <vehicle id="W2E_60" type="ego_car" route="W2E" depart="520" departSpeed="10" departLane="best"/>
   <vehicle id="N2S_61" type="ego_car" route="N2S" depart="520" departSpeed="10" departLane="best"/>
   <vehicle id="E2W_62" type="ego_car" route="E2W" depart="520" departSpeed="10" departLane="best"/>
   <vehicle id="N2S_63" type="ego_car" route="N2S" depart="521" departSpeed="10" departLane="best"/>
   <vehicle id="N2S_64" type="ego_car" route="N2S" depart="522" departSpeed="10" departLane="best"/>
   <vehicle id="W2E_65" type="ego_car" route="W2E" depart="530" departSpeed="10" departLane="best"/>
   <vehicle id="W2E_66" type="ego_car" route="W2E" depart="531" departSpeed="10" departLane="best"/>
   <vehicle id="N2S_67" type="ego_car" route="N2S" depart="536" departSpeed="10" departLane="best"/>
   <vehicle id="N2S_68" type="ego_car" route="N2S" depart="541" departSpeed="10" departLane="best"/>
   <vehicle id="N2S_69" type="ego_car" route="N2S" depart="545" departSpeed="10" departLane="best"/>
   <vehicle id="W2E_70" type="ego_car" route="W2E" depart="560" departSpeed="10" departLane="best"/>
   <vehicle id="E2W_71" type="ego_car" route="E2W" depart="561" departSpeed="10" departLane="best"/>
   <vehicle id="E2W_72" type="ego_car" route="E2W" depart="567" departSpeed="10" departLane="best"/>
   <vehicle id="E2W_73" type="ego_car" route="E2W" depart="571" departSpeed="10" departLane="best"/>
   <vehicle id="E2W_74" type="ego_car" route="E2W" depart="581" departSpeed="10" departLane="best"/>
   <vehicle id="E2W_75" type="ego_car" route="E2W" depart="591" departSpeed="10" departLane="best"/>
   <vehicle id="N2S_76" type="ego_car" route="N2S" depart="591" departSpeed="10" departLane="best"/>
   <vehicle id="W2E_77" type="ego_car" route="W2E" depart="611" departSpeed="10" departLane="best"/>
   <vehicle id="W2E_78" type="ego_car" route="W2E" depart="614" departSpeed="10" departLane="best"/>
   <vehicle id="W2E_79" type="ego_car" route="W2E" depart="625" departSpeed="10" departLane="best"/>
   <vehicle id="N2S_80" type="ego_car" route="N2S" depart="626" departSpeed="10" departLane="best"/>
   <vehicle id="S2N_81" type="ego_car" route="S2N" depart="637" departSpeed="10" departLane="best"/>
   <vehicle id="E2W_82" type="ego_car" route="E2W" depart="643" departSpeed="10" departLane="best"/>
   <vehicle id="E2W_83" type="ego_car" route="E2W" depart="645" departSpeed="10" departLane="best"/>
   <vehicle id="W2E_84" type="ego_car" route="W2E" depart="654" departSpeed="10" departLane="best"/>
   <vehicle id="E2W_85" type="ego_car" route="E2W" depart="668" departSpeed="10" departLane="best"/>
   <vehicle id="W2E_86" type="ego_car" route="W2E" depart="671" departSpeed="10" departLane="best"/>
   <vehicle id="W2E_87" type="ego_car" route="W2E" depart="671" departSpeed="10" departLane="best"/>
   <vehicle id="W2E_88" type="ego_car" route="W2E" depart="678" departSpeed="10" departLane="best"/>
   <vehicle id="N2S_89" type="ego_car" route="N2S" depart="684" departSpeed="10" departLane="best"/>
   <vehicle id="W2E_90" type="ego_car" route="W2E" depart="684" departSpeed="10" departLane="best"/>
   <vehicle id="N2S_91" type="ego_car" route="N2S" depart="686" departSpeed="10" departLane="best"/>
   <vehicle id="N2S_92" type="ego_car" route="N2S" depart="687" departSpeed="10" departLane="best"/>
   <vehicle id="E2W_93" type="ego_car" route="E2W" depart="692" departSpeed="10" departLane="best"/>
   <vehicle id="N2S_94" type="ego_car" route="N2S" depart="692" departSpeed="10" departLane="best"/>
   <vehicle id="W2E_95" type="ego_car" route="W2E" depart="700" departSpeed="10" departLane="best"/>
   <vehicle id="S2N_96" type="ego_car" route="S2N" depart="704" departSpeed="10" departLane="best"/>
   <vehicle id="N2S_97" type="ego_car" route="N2S" depart="709" departSpeed="10" departLane="best"/>
   <vehicle id="W2E_98" type="ego_car" route="W2E" depart="711" departSpeed="10" departLane="best"/>
   <vehicle id="W2E_99" type="ego_car" route="W2E" depart="718" departSpeed="10" departLane="best"/>
   <vehicle id="W2E_100" type="ego_car" route="W2E" depart="718" departSpeed="10" departLane="best"/>
   <vehicle id="E2W_101" type="ego_car" route="E2W" depart="720" departSpeed="10" departLane="best"/>
   <vehicle id="E2W_102" type="ego_car" route="E2W" depart="727" departSpeed="10" departLane="best"/>
   <vehicle id="E2W_103" type="ego_car" route="E2W" depart="728" departSpeed="10" departLane="best"/>
   <vehicle id="N2S_104" type="ego_car" route="N2S" depart="740" departSpeed="10" departLane="best"/>
   <vehicle id="W2E_105" type="ego_car" route="W2E" depart="740" departSpeed="10" departLane="best"/>
   <vehicle id="N2S_106" type="ego_car" route="N2S" depart="741" departSpeed="10" departLane="best"/>
   <vehicle id="S2N_107" type="ego_car" route="S2N" depart="750" departSpeed="10" departLane="best"/>
   <vehicle id="S2N_108" type="ego_car" route="S2N" depart="755" departSpeed="10" departLane="best"/>
   <vehicle id="E2W_109" type="ego_car" route="E2W" depart="763" departSpeed="10" departLane="best"/>
   <vehicle id="E2W_110" type="ego_car" route="E2W" depart="763" departSpeed="10" departLane="best"/>
   <vehicle id="N2S_111" type="ego_car" route="N2S" depart="763" departSpeed="10" departLane="best"/>
   <vehicle id="N2S_112" type="ego_car" route="N2S" depart="764" departSpeed="10" departLane="best"/>
   <vehicle id="W2E_113" type="ego_car" route="W2E" depart="768" departSpeed="10" departLane="best"/>
   <vehicle id="W2E_114" type="ego_car" route="W2E" depart="769" departSpeed="10" departLane="best"/>
   <vehicle id="N2S_115" type="ego_car" route="N2S" depart="772" departSpeed="10" departLane="best"/>
   <vehicle id="E2W_116" type="ego_car" route="E2W" depart="777" departSpeed="10" departLane="best"/>
   <vehicle id="W2E_117" type="ego_car" route="W2E" depart="782" departSpeed="10" departLane="best"/>
   <vehicle id="E2W_118" type="ego_car" route="E2W" depart="788" departSpeed="10" departLane="best"/>
   <vehicle id="W2E_119" type="ego_car" route="W2E" depart="788" departSpeed="10" departLane="best"/>
   <vehicle id="E2W_120" type="ego_car" route="E2W" depart="791" departSpeed="10" departLane="best"/>
   <vehicle id="N2S_121" type="ego_car" route="N2S" depart="794" departSpeed="10" departLane="best"/>
   <vehicle id="N2S_122" type="ego_car" route="N2S" depart="795" departSpeed="10" departLane="best"/>
   <vehicle id="E2W_123" type="ego_car" route="E2W" depart="802" departSpeed="10" departLane="best"/>
   <vehicle id="S2N_124" type="ego_car" route="S2N" depart="803" departSpeed="10" departLane="best"/>
   <vehicle id="E2W_125" type="ego_car" route="E2W" depart="805" departSpeed="10" departLane="best"/>
   <vehicle id="N2S_126" type="ego_car" route="N2S" depart="808" departSpeed="10" departLane="best"/>
   <vehicle id="E2W_127" type="ego_car" route="E2W" depart="811" departSpeed="10" departLane="best"/>
   <vehicle id="W2E_128" type="ego_car" route="W2E" depart="813" departSpeed="10" departLane="best"/>
   <vehicle id="E2W_129" type="ego_car" route="E2W" depart="818" departSpeed="10" departLane="best"/>
   <vehicle id="N2S_130" type="ego_car" route="N2S" depart="822" departSpeed="10" departLane="best"/>
   <vehicle id="N2S_131" type="ego_car" route="N2S" depart="825" departSpeed="10" departLane="best"/>
   <vehicle id="W2E_132" type="ego_car" route="W2E" depart="827" departSpeed="10" departLane="best"/>
   <vehicle id="E2W_133" type="ego_car" route="E2W" depart="830" departSpeed="10" departLane="best"/>
   <vehicle id="S2N_134" type="ego_car" route="S2N" depart="849" departSpeed="10" departLane="best"/>
   <vehicle id="N2S_135" type="ego_car" route="N2S" depart="858" departSpeed="10" departLane="best"/>
   <vehicle id="E2W_136" type="ego_car" route="E2W" depart="859" departSpeed="10" departLane="best"/>
   <vehicle id="S2N_137" type="ego_car" route="S2N" depart="867" departSpeed="10" departLane="best"/>
   <vehicle id="W2E_138" type="ego_car" route="W2E" depart="870" departSpeed="10" departLane="best"/>
   <vehicle id="E2W_139" type="ego_car" route="E2W" depart="876" departSpeed="10" departLane="best"/>
   <vehicle id="W2E_140" type="ego_car" route="W2E" depart="877" departSpeed="10" departLane="best"/>
   <vehicle id="W2E_141" type="ego_car" route="W2E" depart="877" departSpeed="10" departLane="best"/>
   <vehicle id="E2W_142" type="ego_car" route="E2W" depart="886" departSpeed="10" departLane="best"/>
   <vehicle id="N2S_143" type="ego_car" route="N2S" depart="890" departSpeed="10" departLane="best"/>
   <vehicle id="W2E_144" type="ego_car" route="W2E" depart="890" departSpeed="10" departLane="best"/>
   <vehicle id="N2S_145" type="ego_car" route="N2S" depart="895" departSpeed="10" departLane="best"/>
   <vehicle id="W2E_146" type="ego_car" route="W2E" depart="896" departSpeed="10" departLane="best"/>
   <vehicle id="N2S_147" type="ego_car" route="N2S" depart="899" departSpeed="10" departLane="best"/>
   <vehicle id="S2N_148" type="ego_car" route="S2N" depart="902" departSpeed="10" departLane="best"/>
   <vehicle id="N2S_149" type="ego_car" route="N2S" depart="902" departSpeed="10" departLane="best"/>
   <vehicle id="W2E_150" type="ego_car" route="W2E" depart="910" departSpeed="10" departLane="best"/>
   <vehicle id="N2S_151" type="ego_car" route="N2S" depart="912" departSpeed="10" departLane="best"/>
   <vehicle id="E2W_152" type="ego_car" route="E2W" depart="913" departSpeed="10" departLane="best"/>
   <vehicle id="W2E_153" type="ego_car" route="W2E" depart="920" departSpeed="10" departLane="best"/>
   <vehicle id="E2W_154" type="ego_car" route="E2W" depart="921" departSpeed="10" departLane="best"/>
   <vehicle id="N2S_155" type="ego_car" route="N2S" depart="933" departSpeed="10" departLane="best"/>
   <vehicle id="N2S_156" type="ego_car" route="N2S" depart="934" departSpeed="10" departLane="best"/>
   <vehicle id="S2N_157" type="ego_car" route="S2N" depart="940" departSpeed="10" departLane="best"/>
   <vehicle id="E2W_158" type="ego_car" route="E2W" depart="945" departSpeed="10" departLane="best"/>
   <vehicle id="W2E_159" type="ego_car" route="W2E" depart="945" departSpeed="10" departLane="best"/>
   <vehicle id="E2W_160" type="ego_car" route="E2W" depart="953" departSpeed="10" departLane="best"/>
   <vehicle id="W2E_161" type="ego_car" route="W2E" depart="955" departSpeed="10" departLane="best"/>
   <vehicle id="E2W_162" type="ego_car" route="E2W" depart="958" departSpeed="10" departLane="best"/>
   <vehicle id="N2S_163" type="ego_car" route="N2S" depart="959" departSpeed="10" departLane="best"/>
   <vehicle id="N2S_164" type="ego_car" route="N2S" depart="959" departSpeed="10" departLane="best"/>
   <vehicle id="N2S_165" type="ego_car" route="N2S" depart="961" departSpeed="10" departLane="best"/>
   <vehicle id="W2E_166" type="ego_car" route="W2E" depart="969" departSpeed="10" departLane="best"/>
   <vehicle id="E2W_167" type="ego_car" route="E2W" depart="978" departSpeed="10" departLane="best"/>
   <vehicle id="N2S_168" type="ego_car" route="N2S" depart="978" departSpeed="10" departLane="best"/>
   <vehicle id="W2E_169" type="ego_car" route="W2E" depart="980" departSpeed="10" departLane="best"/>
   <vehicle id="E2W_170" type="ego_car" route="E2W" depart="991" departSpeed="10" departLane="best"/>
   <vehicle id="E2W_171" type="ego_car" route="E2W" depart="992" departSpeed="10" departLane="best"/>
   <vehicle id="S2N_172" type="ego_car" route="S2N" depart="1003" departSpeed="10" departLane="best"/>
   <vehicle id="E2W_173" type="ego_car" route="E2W" depart="1004" departSpeed="10" departLane="best"/>
   <vehicle id="N2S_174" type="ego_car" route="N2S" depart="1007" departSpeed="10" departLane="best"/>
   <vehicle id="E2W_175" type="ego_car" route="E2W" depart="1012" departSpeed="10" departLane="best"/>
   <vehicle id="S2N_176" type="ego_car" route="S2N" depart="1013" departSpeed="10" departLane="best"/>
   <vehicle id="E2W_177" type="ego_car" route="E2W" depart="1034" departSpeed="10" departLane="best"/>
   <vehicle id="E2W_178" type="ego_car" route="E2W" depart="1035" departSpeed="10" departLane="best"/>
   <vehicle id="E2W_179" type="ego_car" route="E2W" depart="1043" departSpeed="10" departLane="best"/>
   <vehicle id="W2E_180" type="ego_car" route="W2E" depart="1044" departSpeed="10" departLane="best"/>
   <vehicle id="E2W_181" type="ego_car" route="E2W" depart="1044" departSpeed="10" departLane="best"/>
   <vehicle id="W2E_182" type="ego_car" route="W2E" depart="1048" departSpeed="10" departLane="best"/>
   <vehicle id="N2S_183" type="ego_car" route="N2S" depart="1049" departSpeed="10" departLane="best"/>
   <vehicle id="N2S_184" type="ego_car" route="N2S" depart="1052" departSpeed="10" departLane="best"/>
   <vehicle id="S2N_185" type="ego_car" route="S2N" depart="1056" departSpeed="10" departLane="best"/>
   <vehicle id="W2E_186" type="ego_car" route="W2E" depart="1057" departSpeed="10" departLane="best"/>
   <vehicle id="S2N_187" type="ego_car" route="S2N" depart="1060" departSpeed="10" departLane="best"/>
   <vehicle id="W2E_188" type="ego_car" route="W2E" depart="1061" departSpeed="10" departLane="best"/>
   <vehicle id="N2S_189" type="ego_car" route="N2S" depart="1065" departSpeed="10" departLane="best"/>
   <vehicle id="E2W_190" type="ego_car" route="E2W" depart="1065" departSpeed="10" departLane="best"/>
   <vehicle id="S2N_191" type="ego_car" route="S2N" depart="1067" departSpeed="10" departLane="best"/>
   <vehicle id="S2N_192" type="ego_car" route="S2N" depart="1067" departSpeed="10" departLane="best"/>
   <vehicle id="W2E_193" type="ego_car" route="W2E" depart="1069" departSpeed="10" departLane="best"/>
   <vehicle id="W2E_194" type="ego_car" route="W2E" depart="1078" departSpeed="10" departLane="best"/>
   <vehicle id="E2W_195" type="ego_car" route="E2W" depart="1085" departSpeed="10" departLane="best"/>
   <vehicle id="S2N_196" type="ego_car" route="S2N" depart="1094" departSpeed="10" departLane="best"/>
   <vehicle id="E2W_197" type="ego_car" route="E2W" depart="1094" departSpeed="10" departLane="best"/>
   <vehicle id="W2E_198" type="ego_car" route="W2E" depart="1098" departSpeed="10" departLane="best"/>
   <vehicle id="W2E_199" type="ego_car" route="W2E" depart="1101" departSpeed="10" departLane="best"/>
   <vehicle id="N2S_200" type="ego_car" route="N2S" depart="1104" departSpeed="10" departLane="best"/>
   <vehicle id="N2S_201" type="ego_car" route="N2S" depart="1111" departSpeed="10" departLane="best"/>
   <vehicle id="N2S_202" type="ego_car" route="N2S" depart="1119" departSpeed="10" departLane="best"/>
   <vehicle id="E2W_203" type="ego_car" route="E2W" depart="1126" departSpeed="10" departLane="best"/>
   <vehicle id="N2S_204" type="ego_car" route="N2S" depart="1135" departSpeed="10" departLane="best"/>
   <vehicle id="E2W_205" type="ego_car" route="E2W" depart="1135" departSpeed="10" departLane="best"/>
   <vehicle id="W2E_206" type="ego_car" route="W2E" depart="1136" departSpeed="10" departLane="best"/>
   <vehicle id="N2S_207" type="ego_car" route="N2S" depart="1136" departSpeed="10" departLane="best"/>
   <vehicle id="N2S_208" type="ego_car" route="N2S" depart="1138" departSpeed="10" departLane="best"/>
   <vehicle id="N2S_209" type="ego_car" route="N2S" depart="1139" departSpeed="10" departLane="best"/>
   <vehicle id="E2W_210" type="ego_car" route="E2W" depart="1161" departSpeed="10" departLane="best"/>
   <vehicle id="E2W_211" type="ego_car" route="E2W" depart="1171" departSpeed="10" departLane="best"/>
   <vehicle id="W2E_212" type="ego_car" route="W2E" depart="1173" departSpeed="10" departLane="best"/>
   <vehicle id="W2E_213" type="ego_car" route="W2E" depart="1182" departSpeed="10" departLane="best"/>
   <vehicle id="E2W_214" type="ego_car" route="E2W" depart="1186" departSpeed="10" departLane="best"/>
   <vehicle id="S2N_215" type="ego_car" route="S2N" depart="1187" departSpeed="10" departLane="best"/>
   <vehicle id="E2W_216" type="ego_car" route="E2W" depart="1190" departSpeed="10" departLane="best"/>
   <vehicle id="E2W_217" type="ego_car" route="E2W" depart="1192" departSpeed="10" departLane="best"/>
   <vehicle id="S2N_218" type="ego_car" route="S2N" depart="1200" departSpeed="10" departLane="best"/>
   <vehicle id="S2N_219" type="ego_car" route="S2N" depart="1207" departSpeed="10" departLane="best"/>
   <vehicle id="S2N_220" type="ego_car" route="S2N" depart="1213" departSpeed="10" departLane="best"/>
   <vehicle id="W2E_221" type="ego_car" route="W2E" depart="1219" departSpeed="10" departLane="best"/>
   <vehicle id="W2E_222" type="ego_car" route="W2E" depart="1220" departSpeed="10" departLane="best"/>
   <vehicle id="N2S_223" type="ego_car" route="N2S" depart="1222" departSpeed="10" departLane="best"/>
   <vehicle id="E2W_224" type="ego_car" route="E2W" depart="1223" departSpeed="10" departLane="best"/>
   <vehicle id="N2S_225" type="ego_car" route="N2S" depart="1226" departSpeed="10" departLane="best"/>
   <vehicle id="W2E_226" type="ego_car" route="W2E" depart="1229" departSpeed="10" departLane="best"/>
   <vehicle id="E2W_227" type="ego_car" route="E2W" depart="1232" departSpeed="10" departLane="best"/>
   <vehicle id="W2E_228" type="ego_car" route="W2E" depart="1238" departSpeed="10" departLane="best"/>
   <vehicle id="N2S_229" type="ego_car" route="N2S" depart="1239" departSpeed="10" departLane="best"/>
   <vehicle id="N2S_230" type="ego_car" route="N2S" depart="1243" departSpeed="10" departLane="best"/>
   <vehicle id="W2E_231" type="ego_car" route="W2E" depart="1256" departSpeed="10" departLane="best"/>
   <vehicle id="W2E_232" type="ego_car" route="W2E" depart="1256" departSpeed="10" departLane="best"/>
   <vehicle id="N2S_233" type="ego_car" route="N2S" depart="1256" departSpeed="10" departLane="best"/>
   <vehicle id="S2N_234" type="ego_car" route="S2N" depart="1279" departSpeed="10" departLane="best"/>
   <vehicle id="S2N_235" type="ego_car" route="S2N" depart="1283" departSpeed="10" departLane="best"/>
   <vehicle id="E2W_236" type="ego_car" route="E2W" depart="1284" departSpeed="10" departLane="best"/>
   <vehicle id="S2N_237" type="ego_car" route="S2N" depart="1285" departSpeed="10" departLane="best"/>
   <vehicle id="S2N_238" type="ego_car" route="S2N" depart="1286" departSpeed="10" departLane="best"/>
   <vehicle id="W2E_239" type="ego_car" route="W2E" depart="1294" departSpeed="10" departLane="best"/>
   <vehicle id="S2N_240" type="ego_car" route="S2N" depart="1299" departSpeed="10" departLane="best"/>
   <vehicle id="W2E_241" type="ego_car" route="W2E" depart="1306" departSpeed="10" departLane="best"/>
   <vehicle id="E2W_242" type="ego_car" route="E2W" depart="1322" departSpeed="10" departLane="best"/>
   <vehicle id="E2W_243" type="ego_car" route="E2W" depart="1325" departSpeed="10" departLane="best"/>
   <vehicle id="N2S_244" type="ego_car" route="N2S" depart="1327" departSpeed="10" departLane="best"/>
   <vehicle id="N2S_245" type="ego_car" route="N2S" depart="1331" departSpeed="10" departLane="best"/>
   <vehicle id="E2W_246" type="ego_car" route="E2W" depart="1341" departSpeed="10" departLane="best"/>
   <vehicle id="S2N_247" type="ego_car" route="S2N" depart="1342" departSpeed="10" departLane="best"/>
   <vehicle id="E2W_248" type="ego_car" route="E2W" depart="1354" departSpeed="10" departLane="best"/>
   <vehicle id="N2S_249" type="ego_car" route="N2S" depart="1358" departSpeed="10" departLane="best"/>
   <vehicle id="N2S_250" type="ego_car" route="N2S" depart="1373" departSpeed="10" departLane="best"/>
   <vehicle id="N2S_251" type="ego_car" route="N2S" depart="1375" departSpeed="10" departLane="best"/>
   <vehicle id="S2N_252" type="ego_car" route="S2N" depart="1379" departSpeed="10" departLane="best"/>
   <vehicle id="W2E_253" type="ego_car" route="W2E" depart="1381" departSpeed="10" departLane="best"/>
   <vehicle id="W2E_254" type="ego_car" route="W2E" depart="1383" departSpeed="10" departLane="best"/>
   <vehicle id="W2E_255" type="ego_car" route="W2E" depart="1384" departSpeed="10" departLane="best"/>
   <vehicle id="E2W_256" type="ego_car" route="E2W" depart="1385" departSpeed="10" departLane="best"/>
   <vehicle id="E2W_257" type="ego_car" route="E2W" depart="1397" departSpeed="10" departLane="best"/>
   <vehicle id="W2E_258" type="ego_car" route="W2E" depart="1402" departSpeed="10" departLane="best"/>
   <vehicle id="W2E_259" type="ego_car" route="W2E" depart="1410" departSpeed="10" departLane="best"/>
   <vehicle id="E2W_260" type="ego_car" route="E2W" depart="1413" departSpeed="10" departLane="best"/>
   <vehicle id="S2N_261" type="ego_car" route="S2N" depart="1420" departSpeed="10" departLane="best"/>
   <vehicle id="E2W_262" type="ego_car" route="E2W" depart="1429" departSpeed="10" departLane="best"/>
   <vehicle id="S2N_263" type="ego_car" route="S2N" depart="1441" departSpeed="10" departLane="best"/>
   <vehicle id="W2E_264" type="ego_car" route="W2E" depart="1441" departSpeed="10" departLane="best"/>
   <vehicle id="E2W_265" type="ego_car" route="E2W" depart="1446" departSpeed="10" departLane="best"/>
   <vehicle id="E2W_266" type="ego_car" route="E2W" depart="1450" departSpeed="10" departLane="best"/>
   <vehicle id="S2N_267" type="ego_car" route="S2N" depart="1453" departSpeed="10" departLane="best"/>
   <vehicle id="W2E_268" type="ego_car" route="W2E" depart="1454" departSpeed="10" departLane="best"/>
   <vehicle id="W2E_269" type="ego_car" route="W2E" depart="1455" departSpeed="10" departLane="best"/>
   <vehicle id="S2N_270" type="ego_car" route="S2N" depart="1476" departSpeed="10" departLane="best"/>
   <vehicle id="W2E_271" type="ego_car" route="W2E" depart="1476" departSpeed="10" departLane="best"/>
   <vehicle id="N2S_272" type="ego_car" route="N2S" depart="1479" departSpeed="10" departLane="best"/>
   <vehicle id="S2N_273" type="ego_car" route="S2N" depart="1487" departSpeed="10" departLane="best"/>
   <vehicle id="N2S_274" type="ego_car" route="N2S" depart="1489" departSpeed="10" departLane="best"/>
   <vehicle id="E2W_275" type="ego_car" route="E2W" depart="1493" departSpeed="10" departLane="best"/>
   <vehicle id="E2W_276" type="ego_car" route="E2W" depart="1501" departSpeed="10" departLane="best"/>
   <vehicle id="S2N_277" type="ego_car" route="S2N" depart="1508" departSpeed="10" departLane="best"/>
   <vehicle id="W2E_278" type="ego_car" route="W2E" depart="1516" departSpeed="10" departLane="best"/>
   <vehicle id="S2N_279" type="ego_car" route="S2N" depart="1517" departSpeed="10" departLane="best"/>
   <vehicle id="N2S_280" type="ego_car" route="N2S" depart="1526" departSpeed="10" departLane="best"/>
   <vehicle id="W2E_281" type="ego_car" route="W2E" depart="1536" departSpeed="10" departLane="best"/>
   <vehicle id="N2S_282" type="ego_car" route="N2S" depart="1537" departSpeed="10" departLane="best"/>
   <vehicle id="E2W_283" type="ego_car" route="E2W" depart="1543" departSpeed="10" departLane="best"/>
   <vehicle id="E2W_284" type="ego_car" route="E2W" depart="1544" departSpeed="10" departLane="best"/>
   <vehicle id="E2W_285" type="ego_car" route="E2W" depart="1546" departSpeed="10" departLane="best"/>
   <vehicle id="S2N_286" type="ego_car" route="S2N" depart="1550" departSpeed="10" departLane="best"/>
   <vehicle id="E2W_287" type="ego_car" route="E2W" depart="1565" departSpeed="10" departLane="best"/>
   <vehicle id="E2W_288" type="ego_car" route="E2W" depart="1571" departSpeed="10" departLane="best"/>
   <vehicle id="N2S_289" type="ego_car" route="N2S" depart="1575" departSpeed="10" departLane="best"/>
   <vehicle id="W2E_290" type="ego_car" route="W2E" depart="1575" departSpeed="10" departLane="best"/>