<routes>

        <vType id = 'ego_car' vclass="evehicle" emissionClass="Energy" tau="1.5" accel="3.0" decel="3.0" color="#00FFFF" sigma="0.2" length="4.90" minGap="1.0" maxSpeed="20" carFollowing="IDM" guiShape="passenger"/>

        <route id="N2S" edges="NS -SN"/>
        <route id="S2N" edges="SN -NS"/>
        <route id="W2E" edges="WE -EW"/>
        <route id="E2W" edges="EW -WE"/>
   <vehicle id="W2E_1" type="ego_car" route="W2E" depart="79" departSpeed="10" departLane="best"/>
   <vehicle id="N2S_2" type="ego_car" route="N2S" depart="88" departSpeed="10" departLane="best"/>
   <vehicle id="N2S_3" type="ego_car" route="N2S" depart="142" departSpeed="10" departLane="best"/>
   <vehicle id="W2E_4" type="ego_car" route="W2E" depart="148" departSpeed="10" departLane="best"/>
   <vehicle id="W2E_5" type="ego_car" route="W2E" depart="187" departSpeed="10" departLane="best"/>
   <vehicle id="E2W_6" type="ego_car" route="E2W" depart="197" departSpeed="10" departLane="best"/>
   <vehicle id="N2S_7" type="ego_car" route="N2S" depart="198" departSpeed="10" departLane="best"/>
   <vehicle id="E2W_8" type="ego_car" route="E2W" depart="228" departSpeed="10" departLane="best"/>
   <vehicle id="S2N_9" type="ego_car" route="S2N" depart="245" departSpeed="10" departLane="best"/>
   <vehicle id="W2E_10" type="ego_car" route="W2E" depart="265" departSpeed="10" departLane="best"/>
   <vehicle id="E2W_11" type="ego_car" route="E2W" depart="268" departSpeed="10" departLane="best"/>
   <vehicle id="S2N_12" type="ego_car" route="S2N" depart="270" departSpeed="10" departLane="best"/>
   <vehicle id="S2N_13" type="ego_car" route="S2N" depart="281" departSpeed="10" departLane="best"/>
   <vehicle id="W2E_14" type="ego_car" route="W2E" depart="281" departSpeed="10" departLane="best"/>
   <vehicle id="W2E_15" type="ego_car" route="W2E" depart="298" departSpeed="10" departLane="best"/>
   <vehicle id="N2S_16" type="ego_car" route="N2S" depart="305" departSpeed="10" departLane="best"/>
   <vehicle id="E2W_17" type="ego_car" route="E2W" depart="305" departSpeed="10" departLane="best"/>
   <vehicle id="W2E_18" type="ego_car" route="W2E" depart="308" departSpeed="10" departLane="best"/>
   <vehicle id="S2N_19" type="ego_car" route="S2N" depart="315" departSpeed="10" departLane="best"/>
   <vehicle id="W2E_20" type="ego_car" route="W2E" depart="322" departSpeed="10" departLane="best"/>
   <vehicle id="N2S_21" type="ego_car" route="N2S" depart="333" departSpeed="10" departLane="best"/>
   <vehicle id="S2N_22" type="ego_car" route="S2N" depart="337" departSpeed="10" departLane="best"/>
   <vehicle id="N2S_23" type="ego_car" route="N2S" depart="338" departSpeed="10" departLane="best"/>
   <vehicle id="N2S_24" type="ego_car" route="N2S" depart="339" departSpeed="10" departLane="best"/>
   <vehicle id="E2W_25" type="ego_car" route="E2W" depart="348" departSpeed="10" departLane="best"/>
   <vehicle id="E2W_26" type="ego_car" route="E2W" depart="348" departSpeed="10" departLane="best"/>
   <vehicle id="N2S_27" type="ego_car" route="N2S" depart="349" departSpeed="10" departLane="best"/>
   <vehicle id="W2E_28" type="ego_car" route="W2E" depart="352" departSpeed="10" departLane="best"/>
   <vehicle id="W2E_29" type="ego_car" route="W2E" depart="361" departSpeed="10" departLane="best"/>
   <vehicle id="S2N_30" type="ego_car" route="S2N" depart="364" departSpeed="10" departLane="best"/>
   <vehicle id="N2S_31" type="ego_car" route="N2S" depart="365" departSpeed="10" departLane="best"/>
   <vehicle id="E2W_32" type="ego_car" route="E2W" depart="371" departSpeed="10" departLane="best"/>
   <vehicle id="E2W_33" type="ego_car" route="E2W" depart="371" departSpeed="10" departLane="best"/>
   <vehicle id="E2W_34" type="ego_car" route="E2W" depart="376" departSpeed="10" departLane="best"/>
   <vehicle id="W2E_35" type="ego_car" route="W2E" depart="396" departSpeed="10" departLane="best"/>
   <vehicle id="E2W_36" type="ego_car" route="E2W" depart="399" departSpeed="10" departLane="best"/>
   <vehicle id="E2W_37" type="ego_car" route="E2W" depart="402" departSpeed="10" departLane="best"/>
   <vehicle id="W2E_38" type="ego_car" route="W2E" depart="402" departSpeed="10" departLane="best"/>
   <vehicle id="E2W_39" type="ego_car" route="E2W" depart="402" departSpeed="10" departLane="best"/>
   <vehicle id="E2W_40" type="ego_car" route="E2W" depart="404" departSpeed="10" departLane="best"/>
   <vehicle id="W2E_41" type="ego_car" route="W2E" depart="421" departSpeed="10" departLane="best"/>
   <vehicle id="E2W_42" type="ego_car" route="E2W" depart="427" departSpeed="10" departLane="best"/>
   <vehicle id="W2E_43" type="ego_car" route="W2E" depart="443" departSpeed="10" departLane="best"/>
   <vehicle id="N2S_44" type="ego_car" route="N2S" depart="444" departSpeed="10" departLane="best"/>
   <vehicle id="W2E_45" type="ego_car" route="W2E" depart="445" departSpeed="10" departLane="best"/>
   <vehicle id="W2E_46" type="ego_car" route="W2E" depart="448" departSpeed="10" departLane="best"/>
   <vehicle id="S2N_47" type="ego_car" route="S2N" depart="450" departSpeed="10" departLane="best"/>
   <vehicle id="N2S_48" type="ego_car" route="N2S" depart="452" departSpeed="10" departLane="best"/>
   <vehicle id="W2E_49" type="ego_car" route="W2E" depart="453" departSpeed="10" departLane="best"/>
   <vehicle id="S2N_50" type="ego_car" route="S2N" depart="465" departSpeed="10" departLane="best"/>
   <vehicle id="N2S_51" type="ego_car" route="N2S" depart="466" departSpeed="10" departLane="best"/>
   <vehicle id="E2W_52" type="ego_car" route="E2W" depart="467" departSpeed="10" departLane="best"/>
   <vehicle id="E2W_53" type="ego_car" route="E2W" depart="470" departSpeed="10" departLane="best"/>
   <vehicle id="S2N_54" type="ego_car" route="S2N" depart="473" departSpeed="10" departLane="best"/>
   <vehicle id="N2S_55" type="ego_car" route="N2S" depart="495" departSpeed="10" departLane="best"/>
   <vehicle id="W2E_56" type="ego_car" route="W2E" depart="495" departSpeed="10" departLane="best"/>
   <vehicle id="E2W_57" type="ego_car" route="E2W" depart="502" departSpeed="10" departLane="best"/>
   <vehicle id="E2W_58" type="ego_car" route="E2W" depart="513" departSpeed="10" departLane="best"/>
   <vehicle id="N2S_59" type="ego_car" route="N2S" depart="515" departSpeed="10" departLane="best"/>
   <vehicle id="W2E_60" type="ego_car" route="W2E" depart="517" departSpeed="10" departLane="best"/>
   <vehicle id="S2N_61" type="ego_car" route="S2N" depart="519" departSpeed="10" departLane="best"/>
   <vehicle id="E2W_62" type="ego_car" route="E2W" depart="521" departSpeed="10" departLane="best"/>
   <vehicle id="E2W_63" type="ego_car" route="E2W" depart="522" departSpeed="10" departLane="best"/>
   <vehicle id="S2N_64" type="ego_car" route="S2N" depart="533" departSpeed="10" departLane="best"/>
   <vehicle id="S2N_65" type="ego_car" route="S2N" depart="543" departSpeed="10" departLane="best"/>
   <vehicle id="E2W_66" type="ego_car" route="E2W" depart="549" departSpeed="10" departLane="best"/>
   <vehicle id="N2S_67" type="ego_car" route="N2S" depart="558" departSpeed="10" departLane="best"/>
   <vehicle id="N2S_68" type="ego_car" route="N2S" depart="563" departSpeed="10" departLane="best"/>
   <vehicle id="W2E_69" type="ego_car" route="W2E" depart="567" departSpeed="10" departLane="best"/>
   <vehicle id="S2N_70" type="ego_car" route="S2N" depart="573" departSpeed="10" departLane="best"/>
   <vehicle id="N2S_71" type="ego_car" route="N2S" depart="580" departSpeed="10" departLane="best"/>
   <vehicle id="E2W_72" type="ego_car" route="E2W" depart="588" departSpeed="10" departLane="best"/>
   <vehicle id="W2E_73" type="ego_car" route="W2E" depart="589" departSpeed="10" departLane="best"/>
   <vehicle id="E2W_74" type="ego_car" route="E2W" depart="596" departSpeed="10" departLane="best"/>
   <vehicle id="S2N_75" type="ego_car" route="S2N" depart="605" departSpeed="10" departLane="best"/>
   <vehicle id="N2S_76" type="ego_car" route="N2S" depart="608" departSpeed="10" departLane="best"/>
   <vehicle id="N2S_77" type="ego_car" route="N2S" depart="611" departSpeed="10" departLane="best"/>
   <vehicle id="E2W_78" type="ego_car" route="E2W" depart="611" departSpeed="10" departLane="best"/>
   <vehicle id="W2E_79" type="ego_car" route="W2E" depart="616" departSpeed="10" departLane="best"/>
   <vehicle id="W2E_80" type="ego_car" route="W2E" depart="616" departSpeed="10" departLane="best"/>
   <vehicle id="S2N_81" type="ego_car" route="S2N" depart="617" departSpeed="10" departLane="best"/>
   <vehicle id="E2W_82" type="ego_car" route="E2W" depart="619" departSpeed="10" departLane="best"/>
   <vehicle id="E2W_83" type="ego_car" route="E2W" depart="620" departSpeed="10" departLane="best"/>
   <vehicle id="W2E_84" type="ego_car" route="W2E" depart="622" departSpeed="10" departLane="best"/>
   <vehicle id="N2S_85" type="ego_car" route="N2S" depart="626" departSpeed="10" departLane="best"/>
   <vehicle id="S2N_86" type="ego_car" route="S2N" depart="629" departSpeed="10" departLane="best"/>
   <vehicle id="W2E_87" type="ego_car" route="W2E" depart="633" departSpeed="10" departLane="best"/>
   <vehicle id="S2N_88" type="ego_car" route="S2N" depart="634" departSpeed="10" departLane="best"/>
   <vehicle id="W2E_89" type="ego_car" route="W2E" depart="647" departSpeed="10" departLane="best"/>
   <vehicle id="N2S_90" type="ego_car" route="N2S" depart="648" departSpeed="10" departLane="best"/>
   <vehicle id="S2N_91" type="ego_car" route="S2N" depart="649" departSpeed="10" departLane="best"/>
   <vehicle id="N2S_92" type="ego_car" route="N2S" depart="649" departSpeed="10" departLane="best"/>
   <vehicle id="N2S_93" type="ego_car" route="N2S" depart="653" departSpeed="10" departLane="best"/>
   <vehicle id="E2W_94" type="ego_car" route="E2W" depart="658" departSpeed="10" departLane="best"/>
   <vehicle id="N2S_95" type="ego_car" route="N2S" depart="660" departSpeed="10" departLane="best"/>
   <vehicle id="S2N_96" type="ego_car" route="S2N" depart="665" departSpeed="10" departLane="best"/>
   <vehicle id="W2E_97" type="ego_car" route="W2E" depart="665" departSpeed="10" departLane="best"/>
   <vehicle id="E2W_98" type="ego_car" route="E2W" depart="665" departSpeed="10" departLane="best"/>
   <vehicle id="N2S_99" type="ego_car" route="N2S" depart="671" departSpeed="10" departLane="best"/>
   <vehicle id="W2E_100" type="ego_car" route="W2E" depart="678" departSpeed="10" departLane="best"/>
   <vehicle id="N2S_101" type="ego_car" route="N2S" depart="681" departSpeed="10" departLane="best"/>
   <vehicle id="W2E_102" type="ego_car" route="W2E" depart="686" departSpeed="10" departLane="best"/>
   <vehicle id="N2S_103" type="ego_car" route="N2S" depart="691" departSpeed="10" departLane="best"/>
   <vehicle id="E2W_104" type="ego_car" route="E2W" depart="695" departSpeed="10" departLane="best"/>
   <vehicle id="S2N_105" type="ego_car" route="S2N" depart="696" departSpeed="10" departLane="best"/>
   <vehicle id="E2W_106" type="ego_car" route="E2W" depart="696" departSpeed="10" departLane="best"/>
   <vehicle id="N2S_107" type="ego_car" route="N2S" depart="697" departSpeed="10" departLane="best"/>
   <vehicle id="N2S_108" type="ego_car" route="N2S" depart="700" departSpeed="10" departLane="best"/>
   <vehicle id="E2W_109" type="ego_car" route="E2W" depart="709" departSpeed="10" departLane="best"/>
   <vehicle id="W2E_110" type="ego_car" route="W2E" depart="710" departSpeed="10" departLane="best"/>
   <vehicle id="S2N_111" type="ego_car" route="S2N" depart="711" departSpeed="10" departLane="best"/>
   <vehicle id="S2N_112" type="ego_car" route="S2N" depart="711" departSpeed="10" departLane="best"/>
   <vehicle id="E2W_113" type="ego_car" route="E2W" depart="712" departSpeed="10" departLane="best"/>
   <vehicle id="S2N_114" type="ego_car" route="S2N" depart="725" departSpeed="10" departLane="best"/>
   <vehicle id="S2N_115" type="ego_car" route="S2N" depart="726" departSpeed="10" departLane="best"/>
   <vehicle id="E2W_116" type="ego_car" route="E2W" depart="726" departSpeed="10" departLane="best"/>
   <vehicle id="S2N_117" type="ego_car" route="S2N" depart="728" departSpeed="10" departLane="best"/>
   <vehicle id="N2S_118" type="ego_car" route="N2S" depart="733" departSpeed="10" departLane="best"/>
   <vehicle id="N2S_119" type="ego_car" route="N2S" depart="734" departSpeed="10" departLane="best"/>
   <vehicle id="W2E_120" type="ego_car" route="W2E" depart="737" departSpeed="10" departLane="best"/>
   <vehicle id="E2W_121" type="ego_car" route="E2W" depart="737" departSpeed="10" departLane="best"/>
   <vehicle id="W2E_122" type="ego_car" route="W2E" depart="738" departSpeed="10" departLane="best"/>
   <vehicle id="N2S_123" type="ego_car" route="N2S" depart="740" departSpeed="10" departLane="best"/>
   <vehicle id="N2S_124" type="ego_car" route="N2S" depart="743" departSpeed="10" departLane="best"/>
   <vehicle id="E2W_125" type="ego_car" route="E2W" depart="746" departSpeed="10" departLane="best"/>
   <vehicle id="S2N_126" type="ego_car" route="S2N" depart="752" departSpeed="10" departLane="best"/>
   <vehicle id="N2S_127" type="ego_car" route="N2S" depart="752" departSpeed="10" departLane="best"/>
   <vehicle id="E2W_128" type="ego_car" route="E2W" depart="754" departSpeed="10" departLane="best"/>
   <vehicle id="W2E_129" type="ego_car" route="W2E" depart="760" departSpeed="10" departLane="best"/>
   <vehicle id="E2W_130" type="ego_car" route="E2W" depart="766" departSpeed="10" departLane="best"/>
   <vehicle id="N2S_131" type="ego_car" route="N2S" depart="769" departSpeed="10" departLane="best"/>
   <vehicle id="E2W_132" type="ego_car" route="E2W" depart="770" departSpeed="10" departLane="best"/>
   <vehicle id="N2S_133" type="ego_car" route="N2S" depart="772" departSpeed="10" departLane="best"/>
   <vehicle id="S2N_134" type="ego_car" route="S2N" depart="777" departSpeed="10" departLane="best"/>
   <vehicle id="E2W_135" type="ego_car" route="E2W" depart="789" departSpeed="10" departLane="best"/>
   <vehicle id="E2W_136" type="ego_car" route="E2W" depart="793" departSpeed="10" departLane="best"/>
   <vehicle id="E2W_137" type="ego_car" route="E2W" depart="797" departSpeed="10" departLane="best"/>
   <vehicle id="E2W_138" type="ego_car" route="E2W" depart="803" departSpeed="10" departLane="best"/>
   <vehicle id="S2N_139" type="ego_car" route="S2N" depart="806" departSpeed="10" departLane="best"/>
   <vehicle id="W2E_140" type="ego_car" route="W2E" depart="806" departSpeed="10" departLane="best"/>
   <vehicle id="N2S_141" type="ego_car" route="N2S" depart="806" departSpeed="10" departLane="best"/>
   <vehicle id="W2E_142" type="ego_car" route="W2E" depart="808" departSpeed="10" departLane="best"/>
   <vehicle id="N2S_143" type="ego_car" route="N2S" depart="808" departSpeed="10" departLane="best"/>
   <vehicle id="N2S_144" type="ego_car" route="N2S" depart="810" departSpeed="10" departLane="best"/>
   <vehicle id="N2S_145" type="ego_car" route="N2S" depart="812" departSpeed="10" departLane="best"/>
   <vehicle id="N2S_146" type="ego_car" route="N2S" depart="815" departSpeed="10" departLane="best"/>
   <vehicle id="N2S_147" type="ego_car" route="N2S" depart="816" departSpeed="10" departLane="best"/>
   <vehicle id="W2E_148" type="ego_car" route="W2E" depart="818" departSpeed="10" departLane="best"/>
   <vehicle id="S2N_149" type="ego_car" route="S2N" depart="820" departSpeed="10" departLane="best"/>
   <vehicle id="S2N_150" type="ego_car" route="S2N" depart="823" departSpeed="10" departLane="best"/>
   <vehicle id="W2E_151" type="ego_car" route="W2E" depart="824" departSpeed="10" departLane="best"/>
   <vehicle id="S2N_152" type="ego_car" route="S2N" depart="828" departSpeed="10" departLane="best"/>
   <vehicle id="W2E_153" type="ego_car" route="W2E" depart="833" departSpeed="10" departLane="best"/>
   <vehicle id="E2W_154" type="ego_car" route="E2W" depart="833" departSpeed="10" departLane="best"/>
   <vehicle id="W2E_155" type="ego_car" route="W2E" depart="834" departSpeed="10" departLane="best"/>
   <vehicle id="N2S_156" type="ego_car" route="N2S" depart="834" departSpeed="10" departLane="best"/>
   <vehicle id="N2S_157" type="ego_car" route="N2S" depart="834" departSpeed="10" departLane="best"/>
   <vehicle id="E2W_158" type="ego_car" route="E2W" depart="835" departSpeed="10" departLane="best"/>
   <vehicle id="S2N_159" type="ego_car" route="S2N" depart="837" departSpeed="10" departLane="best"/>
   <vehicle id="S2N_160" type="ego_car" route="S2N" depart="839" departSpeed="10" departLane="best"/>
   <vehicle id="N2S_161" type="ego_car" route="N2S" depart="846" departSpeed="10" departLane="best"/>
   <vehicle id="S2N_162" type="ego_car" route="S2N" depart="848" departSpeed="10" departLane="best"/>
   <vehicle id="N2S_163" type="ego_car" route="N2S" depart="848" departSpeed="10" departLane="best"/>
   <vehicle id="S2N_164" type="ego_car" route="S2N" depart="857" departSpeed="10" departLane="best"/>
   <vehicle id="W2E_165" type="ego_car" route="W2E" depart="866" departSpeed="10" departLane="best"/>
   <vehicle id="E2W_166" type="ego_car" route="E2W" depart="869" departSpeed="10" departLane="best"/>
   <vehicle id="W2E_167" type="ego_car" route="W2E" depart="874" departSpeed="10" departLane="best"/>
   <vehicle id="N2S_168" type="ego_car" route="N2S" depart="877" departSpeed="10" departLane="best"/>
   <vehicle id="W2E_169" type="ego_car" route="W2E" depart="879" departSpeed="10" departLane="best"/>
   <vehicle id="S2N_170" type="ego_car" route="S2N" depart="882" departSpeed="10" departLane="best"/>
   <vehicle id="W2E_171" type="ego_car" route="W2E" depart="883" departSpeed="10" departLane="best"/>
   <vehicle id="E2W_172" type="ego_car" route="E2W" depart="884" departSpeed="10" departLane="best"/>
   <vehicle id="S2N_173" type="ego_car" route="S2N" depart="888" departSpeed="10" departLane="best"/>
   <vehicle id="N2S_174" type="ego_car" route="N2S" depart="897" departSpeed="10" departLane="best"/>
   <vehicle id="E2W_175" type="ego_car" route="E2W" depart="901" departSpeed="10" departLane="best"/>
   <vehicle id="S2N_176" type="ego_car" route="S2N" depart="912" departSpeed="10" departLane="best"/>
   <vehicle id="S2N_177" type="ego_car" route="S2N" depart="922" departSpeed="10" departLane="best"/>
   <vehicle id="W2E_178" type="ego_car" route="W2E" depart="922" departSpeed="10" departLane="best"/>
   <vehicle id="N2S_179" type="ego_car" route="N2S" depart="926" departSpeed="10" departLane="best"/>
   <vehicle id="E2W_180" type="ego_car" route="E2W" depart="934" departSpeed="10" departLane="best"/>
   <vehicle id="E2W_181" type="ego_car" route="E2W" depart="946" departSpeed="10" departLane="best"/>
   <vehicle id="N2S_182" type="ego_car" route="N2S" depart="948" departSpeed="10" departLane="best"/>
   <vehicle id="N2S_183" type="ego_car" route="N2S" depart="953" departSpeed="10" departLane="best"/>
   <vehicle id="E2W_184" type="ego_car" route="E2W" depart="962" departSpeed="10" departLane="best"/>
   <vehicle id="E2W_185" type="ego_car" route="E2W" depart="966" departSpeed="10" departLane="best"/>
   <vehicle id="W2E_186" type="ego_car" route="W2E" depart="968" departSpeed="10" departLane="best"/>
   <vehicle id="E2W_187" type="ego_car" route="E2W" depart="969" departSpeed="10" departLane="best"/>
   <vehicle id="N2S_188" type="ego_car" route="N2S" depart="974" departSpeed="10" departLane="best"/>
   <vehicle id="W2E_189" type="ego_car" route="W2E" depart="976" departSpeed="10" departLane="best"/>
   <vehicle id="W2E_190" type="ego_car" route="W2E" depart="978" departSpeed="10" departLane="best"/>
   <vehicle id="N2S_191" type="ego_car" route="N2S" depart="980" departSpeed="10" departLane="best"/>
   <vehicle id="N2S_192" type="ego_car" route="N2S" depart="980" departSpeed="10" departLane="best"/>
   <vehicle id="W2E_193" type="ego_car" route="W2E" depart="981" departSpeed="10" departLane="best"/>
   <vehicle id="N2S_194" type="ego_car" route="N2S" depart="983" departSpeed="10" departLane="best"/>
   <vehicle id="S2N_195" type="ego_car" route="S2N" depart="992" departSpeed="10" departLane="best"/>
   <vehicle id="N2S_196" type="ego_car" route="N2S" depart="1013" departSpeed="10" departLane="best"/>
   <vehicle id="N2S_197" type="ego_car" route="N2S" depart="1020" departSpeed="10" departLane="best"/>
   <vehicle id="W2E_198" type="ego_car" route="W2E" depart="1022" departSpeed="10" departLane="best"/>
   <vehicle id="W2E_199" type="ego_car" route="W2E" depart="1025" departSpeed="10" departLane="best"/>
   <vehicle id="S2N_200" type="ego_car" route="S2N" depart="1027" departSpeed="10" departLane="best"/>
   <vehicle id="W2E_201" type="ego_car" route="W2E" depart="1028" departSpeed="10" departLane="best"/>
   <vehicle id="W2E_202" type="ego_car" route="W2E" depart="1029" departSpeed="10" departLane="best"/>
   <vehicle id="W2E_203" type="ego_car" route="W2E" depart="1031" departSpeed="10" departLane="best"/>
   <vehicle id="E2W_204" type="ego_car" route="E2W" depart="1045" departSpeed="10" departLane="best"/>
   <vehicle id="S2N_205" type="ego_car" route="S2N" depart="1049" departSpeed="10" departLane="best"/>
   <vehicle id="W2E_206" type="ego_car" route="W2E" depart="1063" departSpeed="10" departLane="best"/>
   <vehicle id="E2W_207" type="ego_car" route="E2W" depart="1066" departSpeed="10" departLane="best"/>
   <vehicle id="E2W_208" type="ego_car" route="E2W" depart="1066" departSpeed="10" departLane="best"/>
   <vehicle id="N2S_209" type="ego_car" route="N2S" depart="1069" departSpeed="10" departLane="best"/>
   <vehicle id="W2E_210" type="ego_car" route="W2E" depart="1074" departSpeed="10" departLane="best"/>
   <vehicle id="W2E_211" type="ego_car" route="W2E" depart="1078" departSpeed="10" departLane="best"/>
   <vehicle id="S2N_212" type="ego_car" route="S2N" depart="1082" departSpeed="10" departLane="best"/>
   <vehicle id="S2N_213" type="ego_car" route="S2N" depart="1087" departSpeed="10" departLane="best"/>
   <vehicle id="E2W_214" type="ego_car" route="E2W" depart="1087" departSpeed="10" departLane="best"/>
   <vehicle id="N2S_215" type="ego_car" route="N2S" depart="1095" departSpeed="10" departLane="best"/>
   <vehicle id="N2S_216" type="ego_car" route="N2S" depart="1111" departSpeed="10" departLane="best"/>
   <vehicle id="S2N_217" type="ego_car" route="S2N" depart="1115" departSpeed="10" departLane="best"/>
   <vehicle id="S2N_218" type="ego_car" route="S2N" depart="1116" departSpeed="10" departLane="best"/>
   <vehicle id="N2S_219" type="ego_car" route="N2S" depart="1116" departSpeed="10" departLane="best"/>
   <vehicle id="W2E_220" type="ego_car" route="W2E" depart="1120" departSpeed="10" departLane="best"/>
   <vehicle id="E2W_221" type="ego_car" route="E2W" depart="1120" departSpeed="10" departLane="best"/>
   <vehicle id="S2N_222" type="ego_car" route="S2N" depart="1125" departSpeed="10" departLane="best"/>
   <vehicle id="S2N_223" type="ego_car" route="S2N" depart="1137" departSpeed="10" departLane="best"/>
   <vehicle id="S2N_224" type="ego_car" route="S2N" depart="1138" departSpeed="10" departLane="best"/>
   <vehicle id="W2E_225" type="ego_car" route="W2E" depart="1139" departSpeed="10" departLane="best"/>
   <vehicle id="N2S_226" type="ego_car" route="N2S" depart="1148" departSpeed="10" departLane="best"/>
   <vehicle id="W2E_227" type="ego_car" route="W2E" depart="1166" departSpeed="10" departLane="best"/>
   <vehicle id="W2E_228" type="ego_car" route="W2E" depart="1169" departSpeed="10" departLane="best"/>
   <vehicle id="W2E_229" type="ego_car" route="W2E" depart="1171" departSpeed="10" departLane="best"/>
   <vehicle id="W2E_230" type="ego_car" route="W2E" depart="1172" departSpeed="10" departLane="best"/>
   <vehicle id="S2N_231" type="ego_car" route="S2N" depart="1174" departSpeed="10" departLane="best"/>
   <vehicle id="W2E_232" type="ego_car" route="W2E" depart="1181" departSpeed="10" departLane="best"/>
   <vehicle id="N2S_233" type="ego_car" route="N2S" depart="1199" departSpeed="10" departLane="best"/>
   <vehicle id="E2W_234" type="ego_car" route="E2W" depart="1202" departSpeed="10" departLane="best"/>
   <vehicle id="S2N_235" type="ego_car" route="S2N" depart="1203" departSpeed="10" departLane="best"/>
   <vehicle id="S2N_236" type="ego_car" route="S2N" depart="1203" departSpeed="10" departLane="best"/>
   <vehicle id="E2W_237" type="ego_car" route="E2W" depart="1203" departSpeed="10" departLane="best"/>
   <vehicle id="E2W_238" type="ego_car" route="E2W" depart="1203" departSpeed="10" departLane="best"/>
   <vehicle id="S2N_239" type="ego_car" route="S2N" depart="1213" departSpeed="10" departLane="best"/>
   <vehicle id="W2E_240" type="ego_car" route="W2E" depart="1215" departSpeed="10" departLane="best"/>
   <vehicle id="W2E_241" type="ego_car" route="W2E" depart="1219" departSpeed="10" departLane="best"/>
   <vehicle id="S2N_242" type="ego_car" route="S2N" depart="1223" departSpeed="10" departLane="best"/>
   <vehicle id="E2W_243" type="ego_car" route="E2W" depart="1223" departSpeed="10" departLane="best"/>
   <vehicle id="N2S_244" type="ego_car" route="N2S" depart="1227" departSpeed="10" departLane="best"/>
   <vehicle id="S2N_245" type="ego_car" route="S2N" depart="1235" departSpeed="10" departLane="best"/>
   <vehicle id="S2N_246" type="ego_car" route="S2N" depart="1243" departSpeed="10" departLane="best"/>
   <vehicle id="S2N_247" type="ego_car" route="S2N" depart="1244" departSpeed="10" departLane="best"/>
   <vehicle id="S2N_248" type="ego_car" route="S2N" depart="1244" departSpeed="10" departLane="best"/>
   <vehicle id="W2E_249" type="ego_car" route="W2E" depart="1249" departSpeed="10" departLane="best"/>
   <vehicle id="N2S_250" type="ego_car" route="N2S" depart="1257" departSpeed="10" departLane="best"/>
   <vehicle id="N2S_251" type="ego_car" route="N2S" depart="1260" departSpeed="10" departLane="best"/>
   <vehicle id="N2S_252" type="ego_car" route="N2S" depart="1260" departSpeed="10" departLane="best"/>
   <vehicle id="E2W_253" type="ego_car" route="E2W" depart="1268" departSpeed="10" departLane="best"/>
   <vehicle id="W2E_254" type="ego_car" route="W2E" depart="1269" departSpeed="10" departLane="best"/>
   <vehicle id="N2S_255" type="ego_car" route="N2S" depart="1271" departSpeed="10" departLane="best"/>
   <vehicle id="W2E_256" type="ego_car" route="W2E" depart="1271" departSpeed="10" departLane="best"/>
   <vehicle id="W2E_257" type="ego_car" route="W2E" depart="1276" departSpeed="10" departLane="best"/>
   <vehicle id="E2W_258" type="ego_car" route="E2W" depart="1280" departSpeed="10" departLane="best"/>
   <vehicle id="N2S_259" type="ego_car" route="N2S" depart="1280" departSpeed="10" departLane="best"/>
   <vehicle id="W2E_260" type="ego_car" route="W2E" depart="1280" departSpeed="10" departLane="best"/>
   <vehicle id="N2S_261" type="ego_car" route="N2S" depart="1288" departSpeed="10" departLane="best"/>
   <vehicle id="W2E_262" type="ego_car" route="W2E" depart="1291" departSpeed="10" departLane="best"/>
   <vehicle id="W2E_263" type="ego_car" route="W2E" depart="1299" departSpeed="10" departLane="best"/>
   <vehicle id="N2S_264" type="ego_car" route="N2S" depart="1313" departSpeed="10" departLane="best"/>
   <vehicle id="S2N_265" type="ego_car" route="S2N" depart="1316" departSpeed="10" departLane="best"/>
   <vehicle id="S2N_266" type="ego_car" route="S2N" depart="1318" departSpeed="10" departLane="best"/>
   <vehicle id="W2E_267" type="ego_car" route="W2E" depart="1318" departSpeed="10" departLane="best"/>
   <vehicle id="S2N_268" type="ego_car" route="S2N" depart="1320" departSpeed="10" departLane="best"/>
   <vehicle id="S2N_269" type="ego_car" route="S2N" depart="1326" departSpeed="10" departLane="best"/>
   <vehicle id="S2N_270" type="ego_car" route="S2N" depart="1332" departSpeed="10" departLane="best"/>
   <vehicle id="N2S_271" type="ego_car" route="N2S" depart="1338" departSpeed="10" departLane="best"/>
   <vehicle id="S2N_272" type="ego_car" route="S2N" depart="1340" departSpeed="10" departLane="best"/>
   <vehicle id="S2N_273" type="ego_car" route="S2N" depart="1350" departSpeed="10" departLane="best"/>
   <vehicle id="W2E_274" type="ego_car" route="W2E" depart="1350" departSpeed="10" departLane="best"/>
   <vehicle id="S2N_275" type="ego_car" route="S2N" depart="1353" departSpeed="10" departLane="best"/>
   <vehicle id="E2W_276" type="ego_car" route="E2W" depart="1364" departSpeed="10" departLane="best"/>
   <vehicle id="S2N_277" type="ego_car" route="S2N" depart="1367" departSpeed="10" departLane="best"/>
   <vehicle id="E2W_278" type="ego_car" route="E2W" depart="1368" departSpeed="10" departLane="best"/>
   <vehicle id="E2W_279" type="ego_car" route="E2W" depart="1376" departSpeed="10" departLane="best"/>
   <vehicle id="E2W_280" type="ego_car" route="E2W" depart="1383" departSpeed="10" departLane="best"/>
   <vehicle id="E2W_281" type="ego_car" route="E2W" depart="1388" departSpeed="10" departLane="best"/>
   <vehicle id="W2E_282" type="ego_car" route="W2E" depart="1392" departSpeed="10" departLane="best"/>
   <vehicle id="S2N_283" type="ego_car" route="S2N" depart="1401" departSpeed="10" departLane="best"/>
   <vehicle id="N2S_284" type="ego_car" route="N2S" depart="1404" departSpeed="10" departLane="best"/>
   <vehicle id="S2N_285" type="ego_car" route="S2N" depart="1407" departSpeed="10" departLane="best"/>
   <vehicle id="E2W_286" type="ego_car" route="E2W" depart="1422" departSpeed="10" departLane="best"/>
   <vehicle id="N2S_287" type="ego_car" route="N2S" depart="1432" departSpeed="10" departLane="best"/>
   <vehicle id="N2S_288" type="ego_car" route="N2S" depart="1436" departSpeed="10" departLane="best"/>
   <vehicle id="W2E_289" type="ego_car" route="W2E" depart="1436" departSpeed="10" departLane="best"/>
   <vehicle id="N2S_290" type="ego_car" route="N2S" depart="1439" departSpeed="10" departLane="best"/>