<routes>

        <vType id = 'ego_car' vclass="evehicle" emissionClass="Energy" tau="1.5" accel="3.0" decel="3.0" color="#00FFFF" sigma="0.2" length="4.90" minGap="1.0" maxSpeed="20" carFollowing="IDM" guiShape="passenger"/>

        <route id="N2S" edges="NS -SN"/>
        <route id="S2N" edges="SN -NS"/>
        <route id="W2E" edges="WE -EW"/>
        <route id="E2W" edges="EW -WE"/>
   <vehicle id="W2E_1" type="ego_car" route="W2E" depart="44" departSpeed="10" departLane="best"/>
   <vehicle id="S2N_2" type="ego_car" route="S2N" depart="115" departSpeed="10" departLane="best"/>
   <vehicle id="S2N_3" type="ego_car" route="S2N" depart="119" departSpeed="10" departLane="best"/>
   <vehicle id="E2W_4" type="ego_car" route="E2W" depart="136" departSpeed="10" departLane="best"/>
   <vehicle id="W2E_5" type="ego_car" route="W2E" depart="142" departSpeed="10" departLane="best"/>
   <vehicle id="S2N_6" type="ego_car" route="S2N" depart="142" departSpeed="10" departLane="best"/>
   <vehicle id="S2N_7" type="ego_car" route="S2N" depart="150" departSpeed="10" departLane="best"/>
   <vehicle id="N2S_8" type="ego_car" route="N2S" depart="167" departSpeed="10" departLane="best"/>
   <vehicle id="S2N_9" type="ego_car" route="S2N" depart="173" departSpeed="10" departLane="best"/>
   <vehicle id="S2N_10" type="ego_car" route="S2N" depart="224" departSpeed="10" departLane="best"/>
   <vehicle id="S2N_11" type="ego_car" route="S2N" depart="229" departSpeed="10" departLane="best"/>
   <vehicle id="W2E_12" type="ego_car" route="W2E" depart="239" departSpeed="10" departLane="best"/>
   <vehicle id="E2W_13" type="ego_car" route="E2W" depart="253" departSpeed="10" departLane="best"/>
   <vehicle id="E2W_14" type="ego_car" route="E2W" depart="264" departSpeed="10" departLane="best"/>
   <vehicle id="E2W_15" type="ego_car" route="E2W" depart="271" departSpeed="10" departLane="best"/>
   <vehicle id="S2N_16" type="ego_car" route="S2N" depart="286" departSpeed="10" departLane="best"/>
   <vehicle id="W2E_17" type="ego_car" route="W2E" depart="290" departSpeed="10" departLane="best"/>
   <vehicle id="S2N_18" type="ego_car" route="S2N" depart="302" departSpeed="10" departLane="best"/>
   <vehicle id="N2S_19" type="ego_car" route="N2S" depart="312" departSpeed="10" departLane="best"/>
   <vehicle id="E2W_20" type="ego_car" route="E2W" depart="314" departSpeed="10" departLane="best"/>
   <vehicle id="S2N_21" type="ego_car" route="S2N" depart="321" departSpeed="10" departLane="best"/>
   <vehicle id="E2W_22" type="ego_car" route="E2W" depart="331" departSpeed="10" departLane="best"/>
   <vehicle id="S2N_23" type="ego_car" route="S2N" depart="346" departSpeed="10" departLane="best"/>
   <vehicle id="S2N_24" type="ego_car" route="S2N" depart="347" departSpeed="10" departLane="best"/>
   <vehicle id="S2N_25" type="ego_car" route="S2N" depart="374" departSpeed="10" departLane="best"/>
   <vehicle id="E2W_26" type="ego_car" route="E2W" depart="381" departSpeed="10" departLane="best"/>
   <vehicle id="N2S_27" type="ego_car" route="N2S" depart="387" departSpeed="10" departLane="best"/>
   <vehicle id="S2N_28" type="ego_car" route="S2N" depart="408" departSpeed="10" departLane="best"/>
   <vehicle id="E2W_29" type="ego_car" route="E2W" depart="409" departSpeed="10" departLane="best"/>
   <vehicle id="N2S_30" type="ego_car" route="N2S" depart="410" departSpeed="10" departLane="best"/>
   <vehicle id="N2S_31" type="ego_car" route="N2S" depart="412" departSpeed="10" departLane="best"/>
   <vehicle id="N2S_32" type="ego_car" route="N2S" depart="431" departSpeed="10" departLane="best"/>
   <vehicle id="S2N_33" type="ego_car" route="S2N" depart="434" departSpeed="10" departLane="best"/>
   <vehicle id="N2S_34" type="ego_car" route="N2S" depart="458" departSpeed="10" departLane="best"/>
   <vehicle id="E2W_35" type="ego_car" route="E2W" depart="458" departSpeed="10" departLane="best"/>
   <vehicle id="S2N_36" type="ego_car" route="S2N" depart="462" departSpeed="10" departLane="best"/>
   <vehicle id="E2W_37" type="ego_car" route="E2W" depart="476" departSpeed="10" departLane="best"/>
   <vehicle id="E2W_38" type="ego_car" route="E2W" depart="485" departSpeed="10" departLane="best"/>
   <vehicle id="E2W_39" type="ego_car" route="E2W" depart="489" departSpeed="10" departLane="best"/>
   <vehicle id="W2E_40" type="ego_car" route="W2E" depart="492" departSpeed="10" departLane="best"/>
   <vehicle id="E2W_41" type="ego_car" route="E2W" depart="495" departSpeed="10" departLane="best"/>
   <vehicle id="S2N_42" type="ego_car" route="S2N" depart="500" departSpeed="10" departLane="best"/>
   <vehicle id="S2N_43" type="ego_car" route="S2N" depart="501" departSpeed="10" departLane="best"/>
   <vehicle id="N2S_44" type="ego_car" route="N2S" depart="502" departSpeed="10" departLane="best"/>
   <vehicle id="N2S_45" type="ego_car" route="N2S" depart="507" departSpeed="10" departLane="best"/>
   <vehicle id="S2N_46" type="ego_car" route="S2N" depart="509" departSpeed="10" departLane="best"/>
   <vehicle id="S2N_47" type="ego_car" route="S2N" depart="512" departSpeed="10" departLane="best"/>
   <vehicle id="N2S_48" type="ego_car" route="N2S" depart="516" departSpeed="10" departLane="best"/>
   <vehicle id="S2N_49" type="ego_car" route="S2N" depart="520" departSpeed="10" departLane="best"/>
   <vehicle id="W2E_50" type="ego_car" route="W2E" depart="521" departSpeed="10" departLane="best"/>
   <vehicle id="S2N_51" type="ego_car" route="S2N" depart="543" departSpeed="10" departLane="best"/>
   <vehicle id="N2S_52" type="ego_car" route="N2S" depart="578" departSpeed="10" departLane="best"/>
   <vehicle id="E2W_53" type="ego_car" route="E2W" depart="578" departSpeed="10" departLane="best"/>
   <vehicle id="S2N_54" type="ego_car" route="S2N" depart="580" departSpeed="10" departLane="best"/>
   <vehicle id="N2S_55" type="ego_car" route="N2S" depart="583" departSpeed="10" departLane="best"/>
   <vehicle id="S2N_56" type="ego_car" route="S2N" depart="587" departSpeed="10" departLane="best"/>
   <vehicle id="N2S_57" type="ego_car" route="N2S" depart="596" departSpeed="10" departLane="best"/>
   <vehicle id="S2N_58" type="ego_car" route="S2N" depart="606" departSpeed="10" departLane="best"/>
   <vehicle id="N2S_59" type="ego_car" route="N2S" depart="609" departSpeed="10" departLane="best"/>
   <vehicle id="S2N_60" type="ego_car" route="S2N" depart="617" departSpeed="10" departLane="best"/>
   <vehicle id="E2W_61" type="ego_car" route="E2W" depart="620" departSpeed="10" departLane="best"/>
   <vehicle id="E2W_62" type="ego_car" route="E2W" depart="622" departSpeed="10" departLane="best"/>
   <vehicle id="S2N_63" type="ego_car" route="S2N" depart="627" departSpeed="10" departLane="best"/>
   <vehicle id="N2S_64" type="ego_car" route="N2S" depart="633" departSpeed="10" departLane="best"/>
   <vehicle id="S2N_65" type="ego_car" route="S2N" depart="633" departSpeed="10" departLane="best"/>
   <vehicle id="E2W_66" type="ego_car" route="E2W" depart="639" departSpeed="10" departLane="best"/>
   <vehicle id="N2S_67" type="ego_car" route="N2S" depart="641" departSpeed="10" departLane="best"/>
   <vehicle id="W2E_68" type="ego_car" route="W2E" depart="642" departSpeed="10" departLane="best"/>
   <vehicle id="E2W_69" type="ego_car" route="E2W" depart="644" departSpeed="10" departLane="best"/>
   <vehicle id="S2N_70" type="ego_car" route="S2N" depart="649" departSpeed="10" departLane="best"/>
   <vehicle id="E2W_71" type="ego_car" route="E2W" depart="650" departSpeed="10" departLane="best"/>
   <vehicle id="S2N_72" type="ego_car" route="S2N" depart="650" departSpeed="10" departLane="best"/>
   <vehicle id="E2W_73" type="ego_car" route="E2W" depart="656" departSpeed="10" departLane="best"/>
   <vehicle id="E2W_74" type="ego_car" route="E2W" depart="660" departSpeed="10" departLane="best"/>
   <vehicle id="E2W_75" type="ego_car" route="E2W" depart="671" departSpeed="10" departLane="best"/>
   <vehicle id="E2W_76" type="ego_car" route="E2W" depart="673" departSpeed="10" departLane="best"/>
   <vehicle id="E2W_77" type="ego_car" route="E2W" depart="674" departSpeed="10" departLane="best"/>
   <vehicle id="N2S_78" type="ego_car" route="N2S" depart="677" departSpeed="10" departLane="best"/>
   <vehicle id="W2E_79" type="ego_car" route="W2E" depart="678" departSpeed="10" departLane="best"/>
   <vehicle id="S2N_80" type="ego_car" route="S2N" depart="679" departSpeed="10" departLane="best"/>
   <vehicle id="E2W_81" type="ego_car" route="E2W" depart="681" departSpeed="10" departLane="best"/>
   <vehicle id="S2N_82" type="ego_car" route="S2N" depart="682" departSpeed="10" departLane="best"/>
   <vehicle id="S2N_83" type="ego_car" route="S2N" depart="682" departSpeed="10" departLane="best"/>
   <vehicle id="N2S_84" type="ego_car" route="N2S" depart="689" departSpeed="10" departLane="best"/>
   <vehicle id="N2S_85" type="ego_car" route="N2S" depart="693" departSpeed="10" departLane="best"/>
   <vehicle id="E2W_86" type="ego_car" route="E2W" depart="693" departSpeed="10" departLane="best"/>
   <vehicle id="E2W_87" type="ego_car" route="E2W" depart="694" departSpeed="10" departLane="best"/>
   <vehicle id="S2N_88" type="ego_car" route="S2N" depart="698" departSpeed="10" departLane="best"/>
   <vehicle id="W2E_89" type="ego_car" route="W2E" depart="703" departSpeed="10" departLane="best"/>
   <vehicle id="W2E_90" type="ego_car" route="W2E" depart="703" departSpeed="10" departLane="best"/>
   <vehicle id="E2W_91" type="ego_car" route="E2W" depart="718" departSpeed="10" departLane="best"/>
   <vehicle id="N2S_92" type="ego_car" route="N2S" depart="724" departSpeed="10" departLane="best"/>
   <vehicle id="E2W_93" type="ego_car" route="E2W" depart="726" departSpeed="10" departLane="best"/>
   <vehicle id="W2E_94" type="ego_car" route="W2E" depart="727" departSpeed="10" departLane="best"/>
   <vehicle id="W2E_95" type="ego_car" route="W2E" depart="728" departSpeed="10" departLane="best"/>
   <vehicle id="S2N_96" type="ego_car" route="S2N" depart="729" departSpeed="10" departLane="best"/>
   <vehicle id="E2W_97" type="ego_car" route="E2W" depart="733" departSpeed="10" departLane="best"/>
   <vehicle id="E2W_98" type="ego_car" route="E2W" depart="739" departSpeed="10" departLane="best"/>
   <vehicle id="N2S_99" type="ego_car" route="N2S" depart="745" departSpeed="10" departLane="best"/>
   <vehicle id="S2N_100" type="ego_car" route="S2N" depart="745" departSpeed="10" departLane="best"/>
   <vehicle id="N2S_101" type="ego_car" route="N2S" depart="748" departSpeed="10" departLane="best"/>
   <vehicle id="W2E_102" type="ego_car" route="W2E" depart="750" departSpeed="10" departLane="best"/>
   <vehicle id="N2S_103" type="ego_car" route="N2S" depart="754" departSpeed="10" departLane="best"/>
   <vehicle id="E2W_104" type="ego_car" route="E2W" depart="758" departSpeed="10" departLane="best"/>
   <vehicle id="E2W_105" type="ego_car" route="E2W" depart="759" departSpeed="10" departLane="best"/>
   <vehicle id="W2E_106" type="ego_car" route="W2E" depart="765" departSpeed="10" departLane="best"/>
   <vehicle id="S2N_107" type="ego_car" route="S2N" depart="770" departSpeed="10" departLane="best"/>
   <vehicle id="W2E_108" type="ego_car" route="W2E" depart="780" departSpeed="10" departLane="best"/>
   <vehicle id="E2W_109" type="ego_car" route="E2W" depart="787" departSpeed="10" departLane="best"/>
   <vehicle id="W2E_110" type="ego_car" route="W2E" depart="802" departSpeed="10" departLane="best"/>
   <vehicle id="N2S_111" type="ego_car" route="N2S" depart="804" departSpeed="10" departLane="best"/>
   <vehicle id="E2W_112" type="ego_car" route="E2W" depart="812" departSpeed="10" departLane="best"/>
   <vehicle id="S2N_113" type="ego_car" route="S2N" depart="812" departSpeed="10" departLane="best"/>
   <vehicle id="W2E_114" type="ego_car" route="W2E" depart="815" departSpeed="10" departLane="best"/>
   <vehicle id="N2S_115" type="ego_car" route="N2S" depart="819" departSpeed="10" departLane="best"/>
   <vehicle id="W2E_116" type="ego_car" route="W2E" depart="820" departSpeed="10" departLane="best"/>
   <vehicle id="E2W_117" type="ego_car" route="E2W" depart="820" departSpeed="10" departLane="best"/>
   <vehicle id="N2S_118" type="ego_car" route="N2S" depart="825" departSpeed="10" departLane="best"/>
   <vehicle id="E2W_119" type="ego_car" route="E2W" depart="831" departSpeed="10" departLane="best"/>
   <vehicle id="W2E_120" type="ego_car" route="W2E" depart="833" departSpeed="10" departLane="best"/>
   <vehicle id="E2W_121" type="ego_car" route="E2W" depart="838" departSpeed="10" departLane="best"/>
   <vehicle id="E2W_122" type="ego_car" route="E2W" depart="840" departSpeed="10" departLane="best"/>
   <vehicle id="E2W_123" type="ego_car" route="E2W" depart="843" departSpeed="10" departLane="best"/>
   <vehicle id="N2S_124" type="ego_car" route="N2S" depart="849" departSpeed="10" departLane="best"/>
   <vehicle id="E2W_125" type="ego_car" route="E2W" depart="852" departSpeed="10" departLane="best"/>
   <vehicle id="E2W_126" type="ego_car" route="E2W" depart="862" departSpeed="10" departLane="best"/>
   <vehicle id="S2N_127" type="ego_car" route="S2N" depart="878" departSpeed="10" departLane="best"/>
   <vehicle id="W2E_128" type="ego_car" route="W2E" depart="880" departSpeed="10" departLane="best"/>
   <vehicle id="N2S_129" type="ego_car" route="N2S" depart="887" departSpeed="10" departLane="best"/>
   <vehicle id="E2W_130" type="ego_car" route="E2W" depart="889" departSpeed="10" departLane="best"/>
   <vehicle id="E2W_131" type="ego_car" route="E2W" depart="889" departSpeed="10" departLane="best"/>
   <vehicle id="E2W_132" type="ego_car" route="E2W" depart="895" departSpeed="10" departLane="best"/>
   <vehicle id="W2E_133" type="ego_car" route="W2E" depart="911" departSpeed="10" departLane="best"/>
   <vehicle id="E2W_134" type="ego_car" route="E2W" depart="915" departSpeed="10" departLane="best"/>
   <vehicle id="E2W_135" type="ego_car" route="E2W" depart="916" departSpeed="10" departLane="best"/>
   <vehicle id="S2N_136" type="ego_car" route="S2N" depart="921" departSpeed="10" departLane="best"/>
   <vehicle id="E2W_137" type="ego_car" route="E2W" depart="950" departSpeed="10" departLane="best"/>
   <vehicle id="S2N_138" type="ego_car" route="S2N" depart="953" departSpeed="10" departLane="best"/>
   <vehicle id="S2N_139" type="ego_car" route="S2N" depart="954" departSpeed="10" departLane="best"/>
   <vehicle id="S2N_140" type="ego_car" route="S2N" depart="956" departSpeed="10" departLane="best"/>
   <vehicle id="E2W_141" type="ego_car" route="E2W" depart="975" departSpeed="10" departLane="best"/>
   <vehicle id="E2W_142" type="ego_car" route="E2W" depart="984" departSpeed="10" departLane="best"/>
   <vehicle id="N2S_143" type="ego_car" route="N2S" depart="987" departSpeed="10" departLane="best"/>
   <vehicle id="N2S_144" type="ego_car" route="N2S" depart="989" departSpeed="10" departLane="best"/>
   <vehicle id="E2W_145" type="ego_car" route="E2W" depart="992" departSpeed="10" departLane="best"/>
   <vehicle id="W2E_146" type="ego_car" route="W2E" depart="997" departSpeed="10" departLane="best"/>
   <vehicle id="E2W_147" type="ego_car" route="E2W" depart="997" departSpeed="10" departLane="best"/>
   <vehicle id="E2W_148" type="ego_car" route="E2W" depart="1014" departSpeed="10" departLane="best"/>
   <vehicle id="W2E_149" type="ego_car" route="W2E" depart="1020" departSpeed="10" departLane="best"/>
   <vehicle id="S2N_150" type="ego_car" route="S2N" depart="1039" departSpeed="10" departLane="best"/>
   <vehicle id="S2N_151" type="ego_car" route="S2N" depart="1039" departSpeed="10" departLane="best"/>
   <vehicle id="W2E_152" type="ego_car" route="W2E" depart="1045" departSpeed="10" departLane="best"/>
   <vehicle id="E2W_153" type="ego_car" route="E2W" depart="1046" departSpeed="10" departLane="best"/>
   <vehicle id="E2W_154" type="ego_car" route="E2W" depart="1050" departSpeed="10" departLane="best"/>
   <vehicle id="E2W_155" type="ego_car" route="E2W" depart="1059" departSpeed="10" departLane="best"/>
   <vehicle id="S2N_156" type="ego_car" route="S2N" depart="1066" departSpeed="10" departLane="best"/>
   <vehicle id="S2N_157" type="ego_car" route="S2N" depart="1067" departSpeed="10" departLane="best"/>
   <vehicle id="W2E_158" type="ego_car" route="W2E" depart="1069" departSpeed="10" departLane="best"/>
   <vehicle id="W2E_159" type="ego_car" route="W2E" depart="1070" departSpeed="10" departLane="best"/>
   <vehicle id="N2S_160" type="ego_car" route="N2S" depart="1072" departSpeed="10" departLane="best"/>
   <vehicle id="S2N_161" type="ego_car" route="S2N" depart="1074" departSpeed="10" departLane="best"/>
   <vehicle id="W2E_162" type="ego_car" route="W2E" depart="1075" departSpeed="10" departLane="best"/>
   <vehicle id="E2W_163" type="ego_car" route="E2W" depart="1076" departSpeed="10" departLane="best"/>
   <vehicle id="N2S_164" type="ego_car" route="N2S" depart="1083" departSpeed="10" departLane="best"/>
   <vehicle id="W2E_165" type="ego_car" route="W2E" depart="1087" departSpeed="10" departLane="best"/>
   <vehicle id="E2W_166" type="ego_car" route="E2W" depart="1090" departSpeed="10" departLane="best"/>
   <vehicle id="N2S_167" type="ego_car" route="N2S" depart="1092" departSpeed="10" departLane="best"/>
   <vehicle id="W2E_168" type="ego_car" route="W2E" depart="1099" departSpeed="10" departLane="best"/>
   <vehicle id="W2E_169" type="ego_car" route="W2E" depart="1110" departSpeed="10" departLane="best"/>
   <vehicle id="E2W_170" type="ego_car" route="E2W" depart="1114" departSpeed="10" departLane="best"/>
   <vehicle id="W2E_171" type="ego_car" route="W2E" depart="1115" departSpeed="10" departLane="best"/>
   <vehicle id="S2N_172" type="ego_car" route="S2N" depart="1117" departSpeed="10" departLane="best"/>
   <vehicle id="N2S_173" type="ego_car" route="N2S" depart="1124" departSpeed="10" departLane="best"/>
   <vehicle id="N2S_174" type="ego_car" route="N2S" depart="1128" departSpeed="10" departLane="best"/>
   <vehicle id="S2N_175" type="ego_car" route="S2N" depart="1136" departSpeed="10" departLane="best"/>
   <vehicle id="E2W_176" type="ego_car" route="E2W" depart="1137" departSpeed="10" departLane="best"/>
   <vehicle id="S2N_177" type="ego_car" route="S2N" depart="1138" departSpeed="10" departLane="best"/>
   <vehicle id="E2W_178" type="ego_car" route="E2W" depart="1146" departSpeed="10" departLane="best"/>
   <vehicle id="N2S_179" type="ego_car" route="N2S" depart="1158" departSpeed="10" departLane="best"/>
   <vehicle id="W2E_180" type="ego_car" route="W2E" depart="1162" departSpeed="10" departLane="best"/>
   <vehicle id="N2S_181" type="ego_car" route="N2S" depart="1167" departSpeed="10" departLane="best"/>
   <vehicle id="N2S_182" type="ego_car" route="N2S" depart="1170" departSpeed="10" departLane="best"/>
   <vehicle id="W2E_183" type="ego_car" route="W2E" depart="1172" departSpeed="10" departLane="best"/>
   <vehicle id="W2E_184" type="ego_car" route="W2E" depart="1184" departSpeed="10" departLane="best"/>
   <vehicle id="N2S_185" type="ego_car" route="N2S" depart="1193" departSpeed="10" departLane="best"/>
   <vehicle id="W2E_186" type="ego_car" route="W2E" depart="1198" departSpeed="10" departLane="best"/>
   <vehicle id="E2W_187" type="ego_car" route="E2W" depart="1201" departSpeed="10" departLane="best"/>
   <vehicle id="S2N_188" type="ego_car" route="S2N" depart="1202" departSpeed="10" departLane="best"/>
   <vehicle id="E2W_189" type="ego_car" route="E2W" depart="1202" departSpeed="10" departLane="best"/>
   <vehicle id="E2W_190" type="ego_car" route="E2W" depart="1208" departSpeed="10" departLane="best"/>
   <vehicle id="S2N_191" type="ego_car" route="S2N" depart="1215" departSpeed="10" departLane="best"/>
   <vehicle id="S2N_192" type="ego_car" route="S2N" depart="1222" departSpeed="10" departLane="best"/>
   <vehicle id="E2W_193" type="ego_car" route="E2W" depart="1227" departSpeed="10" departLane="best"/>
   <vehicle id="E2W_194" type="ego_car" route="E2W" depart="1227" departSpeed="10" departLane="best"/>
   <vehicle id="E2W_195" type="ego_car" route="E2W" depart="1232" departSpeed="10" departLane="best"/>
   <vehicle id="N2S_196" type="ego_car" route="N2S" depart="1236" departSpeed="10" departLane="best"/>
   <vehicle id="S2N_197" type="ego_car" route="S2N" depart="1236" departSpeed="10" departLane="best"/>
   <vehicle id="W2E_198" type="ego_car" route="W2E" depart="1238" departSpeed="10" departLane="best"/>
   <vehicle id="S2N_199" type="ego_car" route="S2N" depart="1241" departSpeed="10" departLane="best"/>
   <vehicle id="S2N_200" type="ego_car" route="S2N" depart="1252" departSpeed="10" departLane="best"/>
   <vehicle id="S2N_201" type="ego_car" route="S2N" depart="1252" departSpeed="10" departLane="best"/>
   <vehicle id="W2E_202" type="ego_car" route="W2E" depart="1265" departSpeed="10" departLane="best"/>
   <vehicle id="N2S_203" type="ego_car" route="N2S" depart="1274" departSpeed="10" departLane="best"/>
   <vehicle id="N2S_204" type="ego_car" route="N2S" depart="1278" departSpeed="10" departLane="best"/>
   <vehicle id="W2E_205" type="ego_car" route="W2E" depart="1283" departSpeed="10" departLane="best"/>
   <vehicle id="E2W_206" type="ego_car" route="E2W" depart="1286" departSpeed="10" departLane="best"/>
   <vehicle id="S2N_207" type="ego_car" route="S2N" depart="1288" departSpeed="10" departLane="best"/>
   <vehicle id="N2S_208" type="ego_car" route="N2S" depart="1299" departSpeed="10" departLane="best"/>
   <vehicle id="E2W_209" type="ego_car" route="E2W" depart="1300" departSpeed="10" departLane="best"/>
   <vehicle id="E2W_210" type="ego_car" route="E2W" depart="1300" departSpeed="10" departLane="best"/>
   <vehicle id="W2E_211" type="ego_car" route="W2E" depart="1304" departSpeed="10" departLane="best"/>
   <vehicle id="N2S_212" type="ego_car" route="N2S" depart="1306" departSpeed="10" departLane="best"/>
   <vehicle id="N2S_213" type="ego_car" route="N2S" depart="1309" departSpeed="10" departLane="best"/>
   <vehicle id="W2E_214" type="ego_car" route="W2E" depart="1316" departSpeed="10" departLane="best"/>
   <vehicle id="E2W_215" type="ego_car" route="E2W" depart="1316" departSpeed="10" departLane="best"/>
   <vehicle id="N2S_216" type="ego_car" route="N2S" depart="1321" departSpeed="10" departLane="best"/>
   <vehicle id="S2N_217" type="ego_car" route="S2N" depart="1331" departSpeed="10" departLane="best"/>
   <vehicle id="S2N_218" type="ego_car" route="S2N" depart="1337" departSpeed="10" departLane="best"/>
   <vehicle id="S2N_219" type="ego_car" route="S2N" depart="1341" departSpeed="10" departLane="best"/>
   <vehicle id="S2N_220" type="ego_car" route="S2N" depart="1347" departSpeed="10" departLane="best"/>
   <vehicle id="W2E_221" type="ego_car" route="W2E" depart="1370" departSpeed="10" departLane="best"/>
   <vehicle id="E2W_222" type="ego_car" route="E2W" depart="1370" departSpeed="10" departLane="best"/>
   <vehicle id="E2W_223" type="ego_car" route="E2W" depart="1372" departSpeed="10" departLane="best"/>
   <vehicle id="S2N_224" type="ego_car" route="S2N" depart="1378" departSpeed="10" departLane="best"/>
   <vehicle id="S2N_225" type="ego_car" route="S2N" depart="1380" departSpeed="10" departLane="best"/>
   <vehicle id="S2N_226" type="ego_car" route="S2N" depart="1390" departSpeed="10" departLane="best"/>
   <vehicle id="N2S_227" type="ego_car" route="N2S" depart="1405" departSpeed="10" departLane="best"/>
   <vehicle id="E2W_228" type="ego_car" route="E2W" depart="1419" departSpeed="10" departLane="best"/>
   <vehicle id="S2N_229" type="ego_car" route="S2N" depart="1422" departSpeed="10" departLane="best"/>
   <vehicle id="E2W_230" type="ego_car" route="E2W" depart="1422" departSpeed="10" departLane="best"/>
   <vehicle id="S2N_231" type="ego_car" route="S2N" depart="1429" departSpeed="10" departLane="best"/>
   <vehicle id="N2S_232" type="ego_car" route="N2S" depart="1436" departSpeed="10" departLane="best"/>
   <vehicle id="N2S_233" type="ego_car" route="N2S" depart="1441" departSpeed="10" departLane="best"/>
   <vehicle id="N2S_234" type="ego_car" route="N2S" depart="1445" departSpeed="10" departLane="best"/>
   <vehicle id="W2E_235" type="ego_car" route="W2E" depart="1448" departSpeed="10" departLane="best"/>
   <vehicle id="E2W_236" type="ego_car" route="E2W" depart="1451" departSpeed="10" departLane="best"/>
   <vehicle id="W2E_237" type="ego_car" route="W2E" depart="1453" departSpeed="10" departLane="best"/>
   <vehicle id="W2E_238" type="ego_car" route="W2E" depart="1454" departSpeed="10" departLane="best"/>
   <vehicle id="E2W_239" type="ego_car" route="E2W" depart="1465" departSpeed="10" departLane="best"/>
   <vehicle id="S2N_240" type="ego_car" route="S2N" depart="1466" departSpeed="10" departLane="best"/>
   <vehicle id="E2W_241" type="ego_car" route="E2W" depart="1469" departSpeed="10" departLane="best"/>
   <vehicle id="S2N_242" type="ego_car" route="S2N" depart="1472" departSpeed="10" departLane="best"/>
   <vehicle id="N2S_243" type="ego_car" route="N2S" depart="1491" departSpeed="10" departLane="best"/>
   <vehicle id="E2W_244" type="ego_car" route="E2W" depart="1498" departSpeed="10" departLane="best"/>
   <vehicle id="W2E_245" type="ego_car" route="W2E" depart="1502" departSpeed="10" departLane="best"/>
   <vehicle id="N2S_246" type="ego_car" route="N2S" depart="1503" departSpeed="10" departLane="best"/>
   <vehicle id="W2E_247" type="ego_car" route="W2E" depart="1504" departSpeed="10" departLane="best"/>
   <vehicle id="W2E_248" type="ego_car" route="W2E" depart="1512" departSpeed="10" departLane="best"/>
   <vehicle id="S2N_249" type="ego_car" route="S2N" depart="1512" departSpeed="10" departLane="best"/>
   <vehicle id="S2N_250" type="ego_car" route="S2N" depart="1517" departSpeed="10" departLane="best"/>
   <vehicle id="S2N_251" type="ego_car" route="S2N" depart="1518" departSpeed="10" departLane="best"/>
   <vehicle id="N2S_252" type="ego_car" route="N2S" depart="1522" departSpeed="10" departLane="best"/>
   <vehicle id="N2S_253" type="ego_car" route="N2S" depart="1528" departSpeed="10" departLane="best"/>
   <vehicle id="E2W_254" type="ego_car" route="E2W" depart="1531" departSpeed="10" departLane="best"/>
   <vehicle id="N2S_255" type="ego_car" route="N2S" depart="1540" departSpeed="10" departLane="best"/>
   <vehicle id="N2S_256" type="ego_car" route="N2S" depart="1545" departSpeed="10" departLane="best"/>
   <vehicle id="W2E_257" type="ego_car" route="W2E" depart="1554" departSpeed="10" departLane="best"/>
   <vehicle id="W2E_258" type="ego_car" route="W2E" depart="1554" departSpeed="10" departLane="best"/>
   <vehicle id="W2E_259" type="ego_car" route="W2E" depart="1555" departSpeed="10" departLane="best"/>
   <vehicle id="W2E_260" type="ego_car" route="W2E" depart="1556" departSpeed="10" departLane="best"/>
   <vehicle id="S2N_261" type="ego_car" route="S2N" depart="1560" departSpeed="10" departLane="best"/>
   <vehicle id="N2S_262" type="ego_car" route="N2S" depart="1569" departSpeed="10" departLane="best"/>
   <vehicle id="N2S_263" type="ego_car" route="N2S" depart="1578" departSpeed="10" departLane="best"/>
   <vehicle id="S2N_264" type="ego_car" route="S2N" depart="1578" departSpeed="10" departLane="best"/>
   <vehicle id="N2S_265" type="ego_car" route="N2S" depart="1583" departSpeed="10" departLane="best"/>
   <vehicle id="E2W_266" type="ego_car" route="E2W" depart="1587" departSpeed="10" departLane="best"/>
   <vehicle id="E2W_267" type="ego_car" route="E2W" depart="1587" departSpeed="10" departLane="best"/>
   <vehicle id="N2S_268" type="ego_car" route="N2S" depart="1592" departSpeed="10" departLane="best"/>
   <vehicle id="W2E_269" type="ego_car" route="W2E" depart="1597" departSpeed="10" departLane="best"/>
   <vehicle id="S2N_270" type="ego_car" route="S2N" depart="1619" departSpeed="10" departLane="best"/>
   <vehicle id="W2E_271" type="ego_car" route="W2E" depart="1621" departSpeed="10" departLane="best"/>
   <vehicle id="W2E_272" type="ego_car" route="W2E" depart="1621" departSpeed="10" departLane="best"/>
   <vehicle id="S2N_273" type="ego_car" route="S2N" depart="1624" departSpeed="10" departLane="best"/>
   <vehicle id="W2E_274" type="ego_car" route="W2E" depart="1650" departSpeed="10" departLane="best"/>
   <vehicle id="W2E_275" type="ego_car" route="W2E" depart="1654" departSpeed="10" departLane="best"/>
   <vehicle id="S2N_276" type="ego_car" route="S2N" depart="1655" departSpeed="10" departLane="best"/>
   <vehicle id="W2E_277" type="ego_car" route="W2E" depart="1662" departSpeed="10" departLane="best"/>
   <vehicle id="E2W_278" type="ego_car" route="E2W" depart="1679" departSpeed="10" departLane="best"/>
   <vehicle id="N2S_279" type="ego_car" route="N2S" depart="1688" departSpeed="10" departLane="best"/>
   <vehicle id="E2W_280" type="ego_car" route="E2W" depart="1693" departSpeed="10" departLane="best"/>
   <vehicle id="N2S_281" type="ego_car" route="N2S" depart="1700" departSpeed="10" departLane="best"/>
   <vehicle id="N2S_282" type="ego_car" route="N2S" depart="1707" departSpeed="10" departLane="best"/>
   <vehicle id="N2S_283" type="ego_car" route="N2S" depart="1710" departSpeed="10" departLane="best"/>
   <vehicle id="S2N_284" type="ego_car" route="S2N" depart="1712" departSpeed="10" departLane="best"/>
   <vehicle id="W2E_285" type="ego_car" route="W2E" depart="1713" departSpeed="10" departLane="best"/>
   <vehicle id="S2N_286" type="ego_car" route="S2N" depart="1731" departSpeed="10" departLane="best"/>
   <vehicle id="E2W_287" type="ego_car" route="E2W" depart="1734" departSpeed="10" departLane="best"/>
   <vehicle id="S2N_288" type="ego_car" route="S2N" depart="1742" departSpeed="10" departLane="best"/>
   <vehicle id="N2S_289" type="ego_car" route="N2S" depart="1749" departSpeed="10" departLane="best"/>