<routes>

        <vType id = 'ego_car' vclass="evehicle" emissionClass="Energy" tau="1.5" accel="3.0" decel="3.0" color="#00FFFF" sigma="0.2" length="4.90" minGap="1.0" maxSpeed="20" carFollowing="IDM" guiShape="passenger"/>

        <route id="N2S" edges="NS -SN"/>
        <route id="S2N" edges="SN -NS"/>
        <route id="W2E" edges="WE -EW"/>
        <route id="E2W" edges="EW -WE"/>
   <vehicle id="S2N_1" type="ego_car" route="S2N" depart="43" departSpeed="10" departLane="best"/>
   <vehicle id="S2N_2" type="ego_car" route="S2N" depart="57" departSpeed="10" departLane="best"/>
   <vehicle id="N2S_3" type="ego_car" route="N2S" depart="68" departSpeed="10" departLane="best"/>
   <vehicle id="E2W_4" type="ego_car" route="E2W" depart="70" departSpeed="10" departLane="best"/>
   <vehicle id="S2N_5" type="ego_car" route="S2N" depart="81" departSpeed="10" departLane="best"/>
   <vehicle id="W2E_6" type="ego_car" route="W2E" depart="87" departSpeed="10" departLane="best"/>
   <vehicle id="N2S_7" type="ego_car" route="N2S" depart="98" departSpeed="10" departLane="best"/>
   <vehicle id="S2N_8" type="ego_car" route="S2N" depart="106" departSpeed="10" departLane="best"/>
   <vehicle id="E2W_9" type="ego_car" route="E2W" depart="114" departSpeed="10" departLane="best"/>
   <vehicle id="S2N_10" type="ego_car" route="S2N" depart="141" departSpeed="10" departLane="best"/>
   <vehicle id="S2N_11" type="ego_car" route="S2N" depart="154" departSpeed="10" departLane="best"/>
   <vehicle id="N2S_12" type="ego_car" route="N2S" depart="161" departSpeed="10" departLane="best"/>
   <vehicle id="W2E_13" type="ego_car" route="W2E" depart="174" departSpeed="10" departLane="best"/>
   <vehicle id="S2N_14" type="ego_car" route="S2N" depart="180" departSpeed="10" departLane="best"/>
   <vehicle id="N2S_15" type="ego_car" route="N2S" depart="187" departSpeed="10" departLane="best"/>
   <vehicle id="N2S_16" type="ego_car" route="N2S" depart="190" departSpeed="10" departLane="best"/>
   <vehicle id="N2S_17" type="ego_car" route="N2S" depart="195" departSpeed="10" departLane="best"/>
   <vehicle id="E2W_18" type="ego_car" route="E2W" depart="203" departSpeed="10" departLane="best"/>
   <vehicle id="S2N_19" type="ego_car" route="S2N" depart="208" departSpeed="10" departLane="best"/>
   <vehicle id="W2E_20" type="ego_car" route="W2E" depart="217" departSpeed="10" departLane="best"/>
   <vehicle id="S2N_21" type="ego_car" route="S2N" depart="227" departSpeed="10" departLane="best"/>
   <vehicle id="W2E_22" type="ego_car" route="W2E" depart="229" departSpeed="10" departLane="best"/>
   <vehicle id="N2S_23" type="ego_car" route="N2S" depart="230" departSpeed="10" departLane="best"/>
   <vehicle id="N2S_24" type="ego_car" route="N2S" depart="233" departSpeed="10" departLane="best"/>
   <vehicle id="S2N_25" type="ego_car" route="S2N" depart="233" departSpeed="10" departLane="best"/>
   <vehicle id="S2N_26" type="ego_car" route="S2N" depart="240" departSpeed="10" departLane="best"/>
   <vehicle id="E2W_27" type="ego_car" route="E2W" depart="244" departSpeed="10" departLane="best"/>
   <vehicle id="W2E_28" type="ego_car" route="W2E" depart="246" departSpeed="10" departLane="best"/>
   <vehicle id="W2E_29" type="ego_car" route="W2E" depart="257" departSpeed="10" departLane="best"/>
   <vehicle id="S2N_30" type="ego_car" route="S2N" depart="263" departSpeed="10" departLane="best"/>
   <vehicle id="N2S_31" type="ego_car" route="N2S" depart="264" departSpeed="10" departLane="best"/>
   <vehicle id="S2N_32" type="ego_car" route="S2N" depart="266" departSpeed="10" departLane="best"/>
   <vehicle id="W2E_33" type="ego_car" route="W2E" depart="269" departSpeed="10" departLane="best"/>
   <vehicle id="S2N_34" type="ego_car" route="S2N" depart="273" departSpeed="10" departLane="best"/>
   <vehicle id="E2W_35" type="ego_car" route="E2W" depart="277" departSpeed="10" departLane="best"/>
   <vehicle id="N2S_36" type="ego_car" route="N2S" depart="281" departSpeed="10" departLane="best"/>
   <vehicle id="N2S_37" type="ego_car" route="N2S" depart="300" departSpeed="10" departLane="best"/>
   <vehicle id="E2W_38" type="ego_car" route="E2W" depart="304" departSpeed="10" departLane="best"/>
   <vehicle id="W2E_39" type="ego_car" route="W2E" depart="316" departSpeed="10" departLane="best"/>
   <vehicle id="E2W_40" type="ego_car" route="E2W" depart="330" departSpeed="10" departLane="best"/>
   <vehicle id="E2W_41" type="ego_car" route="E2W" depart="332" departSpeed="10" departLane="best"/>
   <vehicle id="E2W_42" type="ego_car" route="E2W" depart="335" departSpeed="10" departLane="best"/>
   <vehicle id="W2E_43" type="ego_car" route="W2E" depart="340" departSpeed="10" departLane="best"/>
   <vehicle id="S2N_44" type="ego_car" route="S2N" depart="349" departSpeed="10" departLane="best"/>
   <vehicle id="S2N_45" type="ego_car" route="S2N" depart="361" departSpeed="10" departLane="best"/>
   <vehicle id="W2E_46" type="ego_car" route="W2E" depart="363" departSpeed="10" departLane="best"/>
   <vehicle id="E2W_47" type="ego_car" route="E2W" depart="368" departSpeed="10" departLane="best"/>
   <vehicle id="S2N_48" type="ego_car" route="S2N" depart="370" departSpeed="10" departLane="best"/>
   <vehicle id="N2S_49" type="ego_car" route="N2S" depart="388" departSpeed="10" departLane="best"/>
   <vehicle id="N2S_50" type="ego_car" route="N2S" depart="390" departSpeed="10" departLane="best"/>
   <vehicle id="S2N_51" type="ego_car" route="S2N" depart="396" departSpeed="10" departLane="best"/>
   <vehicle id="S2N_52" type="ego_car" route="S2N" depart="396" departSpeed="10" departLane="best"/>
   <vehicle id="W2E_53" type="ego_car" route="W2E" depart="398" departSpeed="10" departLane="best"/>
   <vehicle id="E2W_54" type="ego_car" route="E2W" depart="403" departSpeed="10" departLane="best"/>
   <vehicle id="W2E_55" type="ego_car" route="W2E" depart="406" departSpeed="10" departLane="best"/>
   <vehicle id="W2E_56" type="ego_car" route="W2E" depart="426" departSpeed="10" departLane="best"/>
   <vehicle id="S2N_57" type="ego_car" route="S2N" depart="427" departSpeed="10" departLane="best"/>
   <vehicle id="W2E_58" type="ego_car" route="W2E" depart="430" departSpeed="10" departLane="best"/>
   <vehicle id="N2S_59" type="ego_car" route="N2S" depart="435" departSpeed="10" departLane="best"/>
   <vehicle id="W2E_60" type="ego_car" route="W2E" depart="438" departSpeed="10" departLane="best"/>
   <vehicle id="E2W_61" type="ego_car" route="E2W" depart="439" departSpeed="10" departLane="best"/>
   <vehicle id="N2S_62" type="ego_car" route="N2S" depart="447" departSpeed="10" departLane="best"/>
   <vehicle id="S2N_63" type="ego_car" route="S2N" depart="451" departSpeed="10" departLane="best"/>
   <vehicle id="W2E_64" type="ego_car" route="W2E" depart="453" departSpeed="10" departLane="best"/>
   <vehicle id="W2E_65" type="ego_car" route="W2E" depart="458" departSpeed="10" departLane="best"/>
   <vehicle id="W2E_66" type="ego_car" route="W2E" depart="463" departSpeed="10" departLane="best"/>
   <vehicle id="W2E_67" type="ego_car" route="W2E" depart="464" departSpeed="10" departLane="best"/>
   <vehicle id="E2W_68" type="ego_car" route="E2W" depart="471" departSpeed="10" departLane="best"/>
   <vehicle id="W2E_69" type="ego_car" route="W2E" depart="472" departSpeed="10" departLane="best"/>
   <vehicle id="S2N_70" type="ego_car" route="S2N" depart="479" departSpeed="10" departLane="best"/>
   <vehicle id="W2E_71" type="ego_car" route="W2E" depart="480" departSpeed="10" departLane="best"/>
   <vehicle id="E2W_72" type="ego_car" route="E2W" depart="489" departSpeed="10" departLane="best"/>
   <vehicle id="N2S_73" type="ego_car" route="N2S" depart="492" departSpeed="10" departLane="best"/>
   <vehicle id="S2N_74" type="ego_car" route="S2N" depart="492" departSpeed="10" departLane="best"/>
   <vehicle id="W2E_75" type="ego_car" route="W2E" depart="495" departSpeed="10" departLane="best"/>
   <vehicle id="N2S_76" type="ego_car" route="N2S" depart="497" departSpeed="10" departLane="best"/>
   <vehicle id="S2N_77" type="ego_car" route="S2N" depart="498" departSpeed="10" departLane="best"/>
   <vehicle id="E2W_78" type="ego_car" route="E2W" depart="501" departSpeed="10" departLane="best"/>
   <vehicle id="W2E_79" type="ego_car" route="W2E" depart="502" departSpeed="10" departLane="best"/>
   <vehicle id="W2E_80" type="ego_car" route="W2E" depart="513" departSpeed="10" departLane="best"/>
   <vehicle id="W2E_81" type="ego_car" route="W2E" depart="517" departSpeed="10" departLane="best"/>
   <vehicle id="W2E_82" type="ego_car" route="W2E" depart="519" departSpeed="10" departLane="best"/>
   <vehicle id="W2E_83" type="ego_car" route="W2E" depart="526" departSpeed="10" departLane="best"/>
   <vehicle id="E2W_84" type="ego_car" route="E2W" depart="542" departSpeed="10" departLane="best"/>
   <vehicle id="S2N_85" type="ego_car" route="S2N" depart="543" departSpeed="10" departLane="best"/>
   <vehicle id="N2S_86" type="ego_car" route="N2S" depart="545" departSpeed="10" departLane="best"/>
   <vehicle id="N2S_87" type="ego_car" route="N2S" depart="548" departSpeed="10" departLane="best"/>
   <vehicle id="N2S_88" type="ego_car" route="N2S" depart="551" departSpeed="10" departLane="best"/>
   <vehicle id="E2W_89" type="ego_car" route="E2W" depart="553" departSpeed="10" departLane="best"/>
   <vehicle id="S2N_90" type="ego_car" route="S2N" depart="553" departSpeed="10" departLane="best"/>
   <vehicle id="E2W_91" type="ego_car" route="E2W" depart="554" departSpeed="10" departLane="best"/>
   <vehicle id="E2W_92" type="ego_car" route="E2W" depart="556" departSpeed="10" departLane="best"/>
   <vehicle id="W2E_93" type="ego_car" route="W2E" depart="566" departSpeed="10" departLane="best"/>
   <vehicle id="W2E_94" type="ego_car" route="W2E" depart="573" departSpeed="10" departLane="best"/>
   <vehicle id="N2S_95" type="ego_car" route="N2S" depart="577" departSpeed="10" departLane="best"/>
   <vehicle id="S2N_96" type="ego_car" route="S2N" depart="583" departSpeed="10" departLane="best"/>
   <vehicle id="W2E_97" type="ego_car" route="W2E" depart="584" departSpeed="10" departLane="best"/>
   <vehicle id="S2N_98" type="ego_car" route="S2N" depart="588" departSpeed="10" departLane="best"/>
   <vehicle id="W2E_99" type="ego_car" route="W2E" depart="592" departSpeed="10" departLane="best"/>
   <vehicle id="E2W_100" type="ego_car" route="E2W" depart="598" departSpeed="10" departLane="best"/>
   <vehicle id="E2W_101" type="ego_car" route="E2W" depart="600" departSpeed="10" departLane="best"/>
   <vehicle id="N2S_102" type="ego_car" route="N2S" depart="608" departSpeed="10" departLane="best"/>
   <vehicle id="N2S_103" type="ego_car" route="N2S" depart="612" departSpeed="10" departLane="best"/>
   <vehicle id="E2W_104" type="ego_car" route="E2W" depart="626" departSpeed="10" departLane="best"/>
   <vehicle id="W2E_105" type="ego_car" route="W2E" depart="628" departSpeed="10" departLane="best"/>
   <vehicle id="S2N_106" type="ego_car" route="S2N" depart="631" departSpeed="10" departLane="best"/>
   <vehicle id="E2W_107" type="ego_car" route="E2W" depart="635" departSpeed="10" departLane="best"/>
   <vehicle id="N2S_108" type="ego_car" route="N2S" depart="648" departSpeed="10" departLane="best"/>
   <vehicle id="N2S_109" type="ego_car" route="N2S" depart="650" departSpeed="10" departLane="best"/>
   <vehicle id="E2W_110" type="ego_car" route="E2W" depart="653" departSpeed="10" departLane="best"/>
   <vehicle id="W2E_111" type="ego_car" route="W2E" depart="653" departSpeed="10" departLane="best"/>
   <vehicle id="E2W_112" type="ego_car" route="E2W" depart="663" departSpeed="10" departLane="best"/>
   <vehicle id="N2S_113" type="ego_car" route="N2S" depart="663" departSpeed="10" departLane="best"/>
   <vehicle id="E2W_114" type="ego_car" route="E2W" depart="672" departSpeed="10" departLane="best"/>
   <vehicle id="S2N_115" type="ego_car" route="S2N" depart="675" departSpeed="10" departLane="best"/>
   <vehicle id="W2E_116" type="ego_car" route="W2E" depart="675" departSpeed="10" departLane="best"/>
   <vehicle id="W2E_117" type="ego_car" route="W2E" depart="678" departSpeed="10" departLane="best"/>
   <vehicle id="W2E_118" type="ego_car" route="W2E" depart="680" departSpeed="10" departLane="best"/>
   <vehicle id="S2N_119" type="ego_car" route="S2N" depart="681" departSpeed="10" departLane="best"/>
   <vehicle id="N2S_120" type="ego_car" route="N2S" depart="683" departSpeed="10" departLane="best"/>
   <vehicle id="S2N_121" type="ego_car" route="S2N" depart="686" departSpeed="10" departLane="best"/>
   <vehicle id="S2N_122" type="ego_car" route="S2N" depart="694" departSpeed="10" departLane="best"/>
   <vehicle id="S2N_123" type="ego_car" route="S2N" depart="694" departSpeed="10" departLane="best"/>
   <vehicle id="S2N_124" type="ego_car" route="S2N" depart="696" departSpeed="10" departLane="best"/>
   <vehicle id="W2E_125" type="ego_car" route="W2E" depart="702" departSpeed="10" departLane="best"/>
   <vehicle id="W2E_126" type="ego_car" route="W2E" depart="714" departSpeed="10" departLane="best"/>
   <vehicle id="E2W_127" type="ego_car" route="E2W" depart="715" departSpeed="10" departLane="best"/>
   <vehicle id="W2E_128" type="ego_car" route="W2E" depart="720" departSpeed="10" departLane="best"/>
   <vehicle id="E2W_129" type="ego_car" route="E2W" depart="725" departSpeed="10" departLane="best"/>
   <vehicle id="E2W_130" type="ego_car" route="E2W" depart="727" departSpeed="10" departLane="best"/>
   <vehicle id="E2W_131" type="ego_car" route="E2W" depart="728" departSpeed="10" departLane="best"/>
   <vehicle id="S2N_132" type="ego_car" route="S2N" depart="730" departSpeed="10" departLane="best"/>
   <vehicle id="S2N_133" type="ego_car" route="S2N" depart="730" departSpeed="10" departLane="best"/>
   <vehicle id="E2W_134" type="ego_car" route="E2W" depart="735" departSpeed="10" departLane="best"/>
   <vehicle id="E2W_135" type="ego_car" route="E2W" depart="738" departSpeed="10" departLane="best"/>
   <vehicle id="W2E_136" type="ego_car" route="W2E" depart="743" departSpeed="10" departLane="best"/>
   <vehicle id="S2N_137" type="ego_car" route="S2N" depart="748" departSpeed="10" departLane="best"/>
   <vehicle id="S2N_138" type="ego_car" route="S2N" depart="749" departSpeed="10" departLane="best"/>
   <vehicle id="E2W_139" type="ego_car" route="E2W" depart="758" departSpeed="10" departLane="best"/>
   <vehicle id="E2W_140" type="ego_car" route="E2W" depart="759" departSpeed="10" departLane="best"/>
   <vehicle id="W2E_141" type="ego_car" route="W2E" depart="760" departSpeed="10" departLane="best"/>
   <vehicle id="N2S_142" type="ego_car" route="N2S" depart="761" departSpeed="10" departLane="best"/>
   <vehicle id="E2W_143" type="ego_car" route="E2W" depart="761" departSpeed="10" departLane="best"/>
   <vehicle id="N2S_144" type="ego_car" route="N2S" depart="767" departSpeed="10" departLane="best"/>
   <vehicle id="W2E_145" type="ego_car" route="W2E" depart="773" departSpeed="10" departLane="best"/>
   <vehicle id="E2W_146" type="ego_car" route="E2W" depart="775" departSpeed="10" departLane="best"/>
   <vehicle id="E2W_147" type="ego_car" route="E2W" depart="781" departSpeed="10" departLane="best"/>
   <vehicle id="N2S_148" type="ego_car" route="N2S" depart="787" departSpeed="10" departLane="best"/>
   <vehicle id="N2S_149" type="ego_car" route="N2S" depart="787" departSpeed="10" departLane="best"/>
   <vehicle id="N2S_150" type="ego_car" route="N2S" depart="789" departSpeed="10" departLane="best"/>
   <vehicle id="E2W_151" type="ego_car" route="E2W" depart="791" departSpeed="10" departLane="best"/>
   <vehicle id="E2W_152" type="ego_car" route="E2W" depart="796" departSpeed="10" departLane="best"/>
   <vehicle id="E2W_153" type="ego_car" route="E2W" depart="811" departSpeed="10" departLane="best"/>
   <vehicle id="N2S_154" type="ego_car" route="N2S" depart="813" departSpeed="10" departLane="best"/>
   <vehicle id="S2N_155" type="ego_car" route="S2N" depart="821" departSpeed="10" departLane="best"/>
   <vehicle id="S2N_156" type="ego_car" route="S2N" depart="824" departSpeed="10" departLane="best"/>
   <vehicle id="N2S_157" type="ego_car" route="N2S" depart="826" departSpeed="10" departLane="best"/>
   <vehicle id="E2W_158" type="ego_car" route="E2W" depart="826" departSpeed="10" departLane="best"/>
   <vehicle id="E2W_159" type="ego_car" route="E2W" depart="828" departSpeed="10" departLane="best"/>
   <vehicle id="E2W_160" type="ego_car" route="E2W" depart="831" departSpeed="10" departLane="best"/>
   <vehicle id="S2N_161" type="ego_car" route="S2N" depart="838" departSpeed="10" departLane="best"/>
   <vehicle id="S2N_162" type="ego_car" route="S2N" depart="839" departSpeed="10" departLane="best"/>
   <vehicle id="W2E_163" type="ego_car" route="W2E" depart="839" departSpeed="10" departLane="best"/>
   <vehicle id="W2E_164" type="ego_car" route="W2E" depart="840" departSpeed="10" departLane="best"/>
   <vehicle id="E2W_165" type="ego_car" route="E2W" depart="845" departSpeed="10" departLane="best"/>
   <vehicle id="N2S_166" type="ego_car" route="N2S" depart="852" departSpeed="10" departLane="best"/>
   <vehicle id="N2S_167" type="ego_car" route="N2S" depart="855" departSpeed="10" departLane="best"/>
   <vehicle id="E2W_168" type="ego_car" route="E2W" depart="855" departSpeed="10" departLane="best"/>
   <vehicle id="E2W_169" type="ego_car" route="E2W" depart="865" departSpeed="10" departLane="best"/>
   <vehicle id="S2N_170" type="ego_car" route="S2N" depart="867" departSpeed="10" departLane="best"/>
   <vehicle id="S2N_171" type="ego_car" route="S2N" depart="871" departSpeed="10" departLane="best"/>
   <vehicle id="W2E_172" type="ego_car" route="W2E" depart="871" departSpeed="10" departLane="best"/>
   <vehicle id="E2W_173" type="ego_car" route="E2W" depart="874" departSpeed="10" departLane="best"/>
   <vehicle id="W2E_174" type="ego_car" route="W2E" depart="876" departSpeed="10" departLane="best"/>
   <vehicle id="W2E_175" type="ego_car" route="W2E" depart="882" departSpeed="10" departLane="best"/>
   <vehicle id="N2S_176" type="ego_car" route="N2S" depart="890" departSpeed="10" departLane="best"/>
   <vehicle id="S2N_177" type="ego_car" route="S2N" depart="890" departSpeed="10" departLane="best"/>
   <vehicle id="S2N_178" type="ego_car" route="S2N" depart="901" departSpeed="10" departLane="best"/>
   <vehicle id="S2N_179" type="ego_car" route="S2N" depart="901" departSpeed="10" departLane="best"/>
   <vehicle id="N2S_180" type="ego_car" route="N2S" depart="902" departSpeed="10" departLane="best"/>
   <vehicle id="E2W_181" type="ego_car" route="E2W" depart="904" departSpeed="10" departLane="best"/>
   <vehicle id="N2S_182" type="ego_car" route="N2S" depart="906" departSpeed="10" departLane="best"/>
   <vehicle id="E2W_183" type="ego_car" route="E2W" depart="909" departSpeed="10" departLane="best"/>
   <vehicle id="S2N_184" type="ego_car" route="S2N" depart="910" departSpeed="10" departLane="best"/>
   <vehicle id="N2S_185" type="ego_car" route="N2S" depart="911" departSpeed="10" departLane="best"/>
   <vehicle id="N2S_186" type="ego_car" route="N2S" depart="919" departSpeed="10" departLane="best"/>
   <vehicle id="S2N_187" type="ego_car" route="S2N" depart="925" departSpeed="10" departLane="best"/>
   <vehicle id="E2W_188" type="ego_car" route="E2W" depart="928" departSpeed="10" departLane="best"/>
   <vehicle id="W2E_189" type="ego_car" route="W2E" depart="933" departSpeed="10" departLane="best"/>
   <vehicle id="W2E_190" type="ego_car" route="W2E" depart="937" departSpeed="10" departLane="best"/>
   <vehicle id="S2N_191" type="ego_car" route="S2N" depart="940" departSpeed="10" departLane="best"/>
   <vehicle id="S2N_192" type="ego_car" route="S2N" depart="942" departSpeed="10" departLane="best"/>
   <vehicle id="N2S_193" type="ego_car" route="N2S" depart="943" departSpeed="10" departLane="best"/>
   <vehicle id="W2E_194" type="ego_car" route="W2E" depart="952" departSpeed="10" departLane="best"/>
   <vehicle id="E2W_195" type="ego_car" route="E2W" depart="958" departSpeed="10" departLane="best"/>
   <vehicle id="E2W_196" type="ego_car" route="E2W" depart="959" departSpeed="10" departLane="best"/>
   <vehicle id="N2S_197" type="ego_car" route="N2S" depart="960" departSpeed="10" departLane="best"/>
   <vehicle id="N2S_198" type="ego_car" route="N2S" depart="963" departSpeed="10" departLane="best"/>
   <vehicle id="E2W_199" type="ego_car" route="E2W" depart="963" departSpeed="10" departLane="best"/>
   <vehicle id="N2S_200" type="ego_car" route="N2S" depart="964" departSpeed="10" departLane="best"/>
   <vehicle id="E2W_201" type="ego_car" route="E2W" depart="964" departSpeed="10" departLane="best"/>
   <vehicle id="N2S_202" type="ego_car" route="N2S" depart="968" departSpeed="10" departLane="best"/>
   <vehicle id="N2S_203" type="ego_car" route="N2S" depart="977" departSpeed="10" departLane="best"/>
   <vehicle id="E2W_204" type="ego_car" route="E2W" depart="981" departSpeed="10" departLane="best"/>
   <vehicle id="W2E_205" type="ego_car" route="W2E" depart="985" departSpeed="10" departLane="best"/>
   <vehicle id="N2S_206" type="ego_car" route="N2S" depart="991" departSpeed="10" departLane="best"/>
   <vehicle id="N2S_207" type="ego_car" route="N2S" depart="992" departSpeed="10" departLane="best"/>
   <vehicle id="W2E_208" type="ego_car" route="W2E" depart="994" departSpeed="10" departLane="best"/>
   <vehicle id="W2E_209" type="ego_car" route="W2E" depart="994" departSpeed="10" departLane="best"/>
   <vehicle id="S2N_210" type="ego_car" route="S2N" depart="1004" departSpeed="10" departLane="best"/>
   <vehicle id="W2E_211" type="ego_car" route="W2E" depart="1018" departSpeed="10" departLane="best"/>
   <vehicle id="N2S_212" type="ego_car" route="N2S" depart="1038" departSpeed="10" departLane="best"/>
   <vehicle id="E2W_213" type="ego_car" route="E2W" depart="1042" departSpeed="10" departLane="best"/>
   <vehicle id="W2E_214" type="ego_car" route="W2E" depart="1051" departSpeed="10" departLane="best"/>
   <vehicle id="E2W_215" type="ego_car" route="E2W" depart="1065" departSpeed="10" departLane="best"/>
   <vehicle id="E2W_216" type="ego_car" route="E2W" depart="1066" departSpeed="10" departLane="best"/>
   <vehicle id="E2W_217" type="ego_car" route="E2W" depart="1073" departSpeed="10" departLane="best"/>
   <vehicle id="S2N_218" type="ego_car" route="S2N" depart="1078" departSpeed="10" departLane="best"/>
   <vehicle id="N2S_219" type="ego_car" route="N2S" depart="1079" departSpeed="10" departLane="best"/>
   <vehicle id="N2S_220" type="ego_car" route="N2S" depart="1088" departSpeed="10" departLane="best"/>
   <vehicle id="N2S_221" type="ego_car" route="N2S" depart="1088" departSpeed="10" departLane="best"/>
   <vehicle id="W2E_222" type="ego_car" route="W2E" depart="1092" departSpeed="10" departLane="best"/>
   <vehicle id="W2E_223" type="ego_car" route="W2E" depart="1096" departSpeed="10" departLane="best"/>
   <vehicle id="E2W_224" type="ego_car" route="E2W" depart="1103" departSpeed="10" departLane="best"/>
   <vehicle id="S2N_225" type="ego_car" route="S2N" depart="1110" departSpeed="10" departLane="best"/>
   <vehicle id="W2E_226" type="ego_car" route="W2E" depart="1116" departSpeed="10" departLane="best"/>
   <vehicle id="N2S_227" type="ego_car" route="N2S" depart="1118" departSpeed="10" departLane="best"/>
   <vehicle id="N2S_228" type="ego_car" route="N2S" depart="1128" departSpeed="10" departLane="best"/>
   <vehicle id="W2E_229" type="ego_car" route="W2E" depart="1128" departSpeed="10" departLane="best"/>
   <vehicle id="W2E_230" type="ego_car" route="W2E" depart="1130" departSpeed="10" departLane="best"/>
   <vehicle id="S2N_231" type="ego_car" route="S2N" depart="1134" departSpeed="10" departLane="best"/>
   <vehicle id="N2S_232" type="ego_car" route="N2S" depart="1136" departSpeed="10" departLane="best"/>
   <vehicle id="S2N_233" type="ego_car" route="S2N" depart="1137" departSpeed="10" departLane="best"/>
   <vehicle id="W2E_234" type="ego_car" route="W2E" depart="1139" departSpeed="10" departLane="best"/>
   <vehicle id="E2W_235" type="ego_car" route="E2W" depart="1145" departSpeed="10" departLane="best"/>
   <vehicle id="E2W_236" type="ego_car" route="E2W" depart="1146" departSpeed="10" departLane="best"/>
   <vehicle id="W2E_237" type="ego_car" route="W2E" depart="1153" departSpeed="10" departLane="best"/>
   <vehicle id="N2S_238" type="ego_car" route="N2S" depart="1159" departSpeed="10" departLane="best"/>
   <vehicle id="W2E_239" type="ego_car" route="W2E" depart="1181" departSpeed="10" departLane="best"/>
   <vehicle id="N2S_240" type="ego_car" route="N2S" depart="1191" departSpeed="10" departLane="best"/>
   <vehicle id="W2E_241" type="ego_car" route="W2E" depart="1191" departSpeed="10" departLane="best"/>
   <vehicle id="W2E_242" type="ego_car" route="W2E" depart="1192" departSpeed="10" departLane="best"/>
   <vehicle id="S2N_243" type="ego_car" route="S2N" depart="1195" departSpeed="10" departLane="best"/>
   <vehicle id="N2S_244" type="ego_car" route="N2S" depart="1201" departSpeed="10" departLane="best"/>
   <vehicle id="W2E_245" type="ego_car" route="W2E" depart="1201" departSpeed="10" departLane="best"/>
   <vehicle id="S2N_246" type="ego_car" route="S2N" depart="1210" departSpeed="10" departLane="best"/>
   <vehicle id="W2E_247" type="ego_car" route="W2E" depart="1211" departSpeed="10" departLane="best"/>
   <vehicle id="S2N_248" type="ego_car" route="S2N" depart="1214" departSpeed="10" departLane="best"/>
   <vehicle id="E2W_249" type="ego_car" route="E2W" depart="1228" departSpeed="10" departLane="best"/>
   <vehicle id="W2E_250" type="ego_car" route="W2E" depart="1229" departSpeed="10" departLane="best"/>
   <vehicle id="N2S_251" type="ego_car" route="N2S" depart="1243" departSpeed="10" departLane="best"/>
   <vehicle id="W2E_252" type="ego_car" route="W2E" depart="1244" departSpeed="10" departLane="best"/>
   <vehicle id="W2E_253" type="ego_car" route="W2E" depart="1244" departSpeed="10" departLane="best"/>
   <vehicle id="W2E_254" type="ego_car" route="W2E" depart="1246" departSpeed="10" departLane="best"/>
   <vehicle id="S2N_255" type="ego_car" route="S2N" depart="1247" departSpeed="10" departLane="best"/>
   <vehicle id="W2E_256" type="ego_car" route="W2E" depart="1249" departSpeed="10" departLane="best"/>
   <vehicle id="W2E_257" type="ego_car" route="W2E" depart="1252" departSpeed="10" departLane="best"/>
   <vehicle id="N2S_258" type="ego_car" route="N2S" depart="1258" departSpeed="10" departLane="best"/>
   <vehicle id="N2S_259" type="ego_car" route="N2S" depart="1261" departSpeed="10" departLane="best"/>
   <vehicle id="N2S_260" type="ego_car" route="N2S" depart="1263" departSpeed="10" departLane="best"/>
   <vehicle id="N2S_261" type="ego_car" route="N2S" depart="1264" departSpeed="10" departLane="best"/>
   <vehicle id="N2S_262" type="ego_car" route="N2S" depart="1264" departSpeed="10" departLane="best"/>
   <vehicle id="W2E_263" type="ego_car" route="W2E" depart="1267" departSpeed="10" departLane="best"/>
   <vehicle id="S2N_264" type="ego_car" route="S2N" depart="1271" departSpeed="10" departLane="best"/>
   <vehicle id="E2W_265" type="ego_car" route="E2W" depart="1275" departSpeed="10" departLane="best"/>
   <vehicle id="S2N_266" type="ego_car" route="S2N" depart="1279" departSpeed="10" departLane="best"/>
   <vehicle id="S2N_267" type="ego_car" route="S2N" depart="1289" departSpeed="10" departLane="best"/>
   <vehicle id="N2S_268" type="ego_car" route="N2S" depart="1294" departSpeed="10" departLane="best"/>
   <vehicle id="S2N_269" type="ego_car" route="S2N" depart="1298" departSpeed="10" departLane="best"/>
   <vehicle id="E2W_270" type="ego_car" route="E2W" depart="1300" departSpeed="10" departLane="best"/>
   <vehicle id="E2W_271" type="ego_car" route="E2W" depart="1307" departSpeed="10" departLane="best"/>
   <vehicle id="S2N_272" type="ego_car" route="S2N" depart="1308" departSpeed="10" departLane="best"/>
   <vehicle id="E2W_273" type="ego_car" route="E2W" depart="1315" departSpeed="10" departLane="best"/>
   <vehicle id="S2N_274" type="ego_car" route="S2N" depart="1331" departSpeed="10" departLane="best"/>
   <vehicle id="W2E_275" type="ego_car" route="W2E" depart="1334" departSpeed="10" departLane="best"/>
   <vehicle id="S2N_276" type="ego_car" route="S2N" depart="1336" departSpeed="10" departLane="best"/>
   <vehicle id="N2S_277" type="ego_car" route="N2S" depart="1341" departSpeed="10" departLane="best"/>
   <vehicle id="E2W_278" type="ego_car" route="E2W" depart="1349" departSpeed="10" departLane="best"/>
   <vehicle id="E2W_279" type="ego_car" route="E2W" depart="1353" departSpeed="10" departLane="best"/>
   <vehicle id="S2N_280" type="ego_car" route="S2N" depart="1359" departSpeed="10" departLane="best"/>
   <vehicle id="S2N_281" type="ego_car" route="S2N" depart="1360" departSpeed="10" departLane="best"/>
   <vehicle id="E2W_282" type="ego_car" route="E2W" depart="1365" departSpeed="10" departLane="best"/>
   <vehicle id="S2N_283" type="ego_car" route="S2N" depart="1365" departSpeed="10" departLane="best"/>
   <vehicle id="W2E_284" type="ego_car" route="W2E" depart="1371" departSpeed="10" departLane="best"/>
   <vehicle id="S2N_285" type="ego_car" route="S2N" depart="1376" departSpeed="10" departLane="best"/>
   <vehicle id="E2W_286" type="ego_car" route="E2W" depart="1388" departSpeed="10" departLane="best"/>
   <vehicle id="N2S_287" type="ego_car" route="N2S" depart="1389" departSpeed="10" departLane="best"/>
   <vehicle id="S2N_288" type="ego_car" route="S2N" depart="1393" departSpeed="10" departLane="best"/>
   <vehicle id="S2N_289" type="ego_car" route="S2N" depart="1398" departSpeed="10" departLane="best"/>
   <vehicle id="E2W_290" type="ego_car" route="E2W" depart="1402" departSpeed="10" departLane="best"/>