<routes>

        <vType id = 'ego_car' vclass="evehicle" emissionClass="Energy" tau="1.5" accel="3.0" decel="3.0" color="#00FFFF" sigma="0.2" length="4.90" minGap="1.0" maxSpeed="20" carFollowing="IDM" guiShape="passenger"/>

        <route id="N2S" edges="NS -SN"/>
        <route id="S2N" edges="SN -NS"/>
        <route id="W2E" edges="WE -EW"/>
        <route id="E2W" edges="EW -WE"/>
   <vehicle id="E2W_1" type="ego_car" route="E2W" depart="66" departSpeed="10" departLane="best"/>
   <vehicle id="S2N_2" type="ego_car" route="S2N" depart="88" departSpeed="10" departLane="best"/>
   <vehicle id="E2W_3" type="ego_car" route="E2W" depart="90" departSpeed="10" departLane="best"/>
   <vehicle id="W2E_4" type="ego_car" route="W2E" depart="94" departSpeed="10" departLane="best"/>
   <vehicle id="W2E_5" type="ego_car" route="W2E" depart="94" departSpeed="10" departLane="best"/>
   <vehicle id="E2W_6" type="ego_car" route="E2W" depart="98" departSpeed="10" departLane="best"/>
   <vehicle id="S2N_7" type="ego_car" route="S2N" depart="178" departSpeed="10" departLane="best"/>
   <vehicle id="S2N_8" type="ego_car" route="S2N" depart="181" departSpeed="10" departLane="best"/>
   <vehicle id="E2W_9" type="ego_car" route="E2W" depart="181" departSpeed="10" departLane="best"/>
   <vehicle id="E2W_10" type="ego_car" route="E2W" depart="182" departSpeed="10" departLane="best"/>
   <vehicle id="E2W_11" type="ego_car" route="E2W" depart="220" departSpeed="10" departLane="best"/>
   <vehicle id="E2W_12" type="ego_car" route="E2W" depart="222" departSpeed="10" departLane="best"/>
   <vehicle id="N2S_13" type="ego_car" route="N2S" depart="225" departSpeed="10" departLane="best"/>
   <vehicle id="S2N_14" type="ego_car" route="S2N" depart="228" departSpeed="10" departLane="best"/>
   <vehicle id="W2E_15" type="ego_car" route="W2E" depart="232" departSpeed="10" departLane="best"/>
   <vehicle id="S2N_16" type="ego_car" route="S2N" depart="234" departSpeed="10" departLane="best"/>
   <vehicle id="N2S_17" type="ego_car" route="N2S" depart="252" departSpeed="10" departLane="best"/>
   <vehicle id="E2W_18" type="ego_car" route="E2W" depart="259" departSpeed="10" departLane="best"/>
   <vehicle id="S2N_19" type="ego_car" route="S2N" depart="275" departSpeed="10" departLane="best"/>
   <vehicle id="E2W_20" type="ego_car" route="E2W" depart="297" departSpeed="10" departLane="best"/>
   <vehicle id="E2W_21" type="ego_car" route="E2W" depart="302" departSpeed="10" departLane="best"/>
   <vehicle id="N2S_22" type="ego_car" route="N2S" depart="309" departSpeed="10" departLane="best"/>
   <vehicle id="S2N_23" type="ego_car" route="S2N" depart="312" departSpeed="10" departLane="best"/>
   <vehicle id="S2N_24" type="ego_car" route="S2N" depart="316" departSpeed="10" departLane="best"/>
   <vehicle id="N2S_25" type="ego_car" route="N2S" depart="323" departSpeed="10" departLane="best"/>
   <vehicle id="W2E_26" type="ego_car" route="W2E" depart="330" departSpeed="10" departLane="best"/>
   <vehicle id="E2W_27" type="ego_car" route="E2W" depart="336" departSpeed="10" departLane="best"/>
   <vehicle id="N2S_28" type="ego_car" route="N2S" depart="345" departSpeed="10" departLane="best"/>
   <vehicle id="E2W_29" type="ego_car" route="E2W" depart="359" departSpeed="10" departLane="best"/>
   <vehicle id="N2S_30" type="ego_car" route="N2S" depart="370" departSpeed="10" departLane="best"/>
   <vehicle id="E2W_31" type="ego_car" route="E2W" depart="383" departSpeed="10" departLane="best"/>
   <vehicle id="S2N_32" type="ego_car" route="S2N" depart="394" departSpeed="10" departLane="best"/>
   <vehicle id="S2N_33" type="ego_car" route="S2N" depart="400" departSpeed="10" departLane="best"/>
   <vehicle id="N2S_34" type="ego_car" route="N2S" depart="412" departSpeed="10" departLane="best"/>
   <vehicle id="N2S_35" type="ego_car" route="N2S" depart="415" departSpeed="10" departLane="best"/>
   <vehicle id="E2W_36" type="ego_car" route="E2W" depart="417" departSpeed="10" departLane="best"/>
   <vehicle id="E2W_37" type="ego_car" route="E2W" depart="419" departSpeed="10" departLane="best"/>
   <vehicle id="E2W_38" type="ego_car" route="E2W" depart="422" departSpeed="10" departLane="best"/>
   <vehicle id="E2W_39" type="ego_car" route="E2W" depart="423" departSpeed="10" departLane="best"/>
   <vehicle id="S2N_40" type="ego_car" route="S2N" depart="436" departSpeed="10" departLane="best"/>
   <vehicle id="W2E_41" type="ego_car" route="W2E" depart="447" departSpeed="10" departLane="best"/>
   <vehicle id="N2S_42" type="ego_car" route="N2S" depart="447" departSpeed="10" departLane="best"/>
   <vehicle id="S2N_43" type="ego_car" route="S2N" depart="448" departSpeed="10" departLane="best"/>
   <vehicle id="E2W_44" type="ego_car" route="E2W" depart="449" departSpeed="10" departLane="best"/>
   <vehicle id="N2S_45" type="ego_car" route="N2S" depart="470" departSpeed="10" departLane="best"/>
   <vehicle id="W2E_46" type="ego_car" route="W2E" depart="477" departSpeed="10" departLane="best"/>
   <vehicle id="N2S_47" type="ego_car" route="N2S" depart="478" departSpeed="10" departLane="best"/>
   <vehicle id="S2N_48" type="ego_car" route="S2N" depart="485" departSpeed="10" departLane="best"/>
   <vehicle id="N2S_49" type="ego_car" route="N2S" depart="488" departSpeed="10" departLane="best"/>
   <vehicle id="E2W_50" type="ego_car" route="E2W" depart="491" departSpeed="10" departLane="best"/>
   <vehicle id="S2N_51" type="ego_car" route="S2N" depart="514" departSpeed="10" departLane="best"/>
   <vehicle id="E2W_52" type="ego_car" route="E2W" depart="516" departSpeed="10" departLane="best"/>
   <vehicle id="E2W_53" type="ego_car" route="E2W" depart="522" departSpeed="10" departLane="best"/>
   <vehicle id="S2N_54" type="ego_car" route="S2N" depart="527" departSpeed="10" departLane="best"/>
   <vehicle id="S2N_55" type="ego_car" route="S2N" depart="531" departSpeed="10" departLane="best"/>
   <vehicle id="W2E_56" type="ego_car" route="W2E" depart="532" departSpeed="10" departLane="best"/>
   <vehicle id="W2E_57" type="ego_car" route="W2E" depart="533" departSpeed="10" departLane="best"/>
   <vehicle id="N2S_58" type="ego_car" route="N2S" depart="542" departSpeed="10" departLane="best"/>
   <vehicle id="S2N_59" type="ego_car" route="S2N" depart="544" departSpeed="10" departLane="best"/>
   <vehicle id="N2S_60" type="ego_car" route="N2S" depart="545" departSpeed="10" departLane="best"/>
   <vehicle id="N2S_61" type="ego_car" route="N2S" depart="549" departSpeed="10" departLane="best"/>
   <vehicle id="E2W_62" type="ego_car" route="E2W" depart="549" departSpeed="10" departLane="best"/>
   <vehicle id="N2S_63" type="ego_car" route="N2S" depart="557" departSpeed="10" departLane="best"/>
   <vehicle id="E2W_64" type="ego_car" route="E2W" depart="559" departSpeed="10" departLane="best"/>
   <vehicle id="S2N_65" type="ego_car" route="S2N" depart="564" departSpeed="10" departLane="best"/>
   <vehicle id="E2W_66" type="ego_car" route="E2W" depart="578" departSpeed="10" departLane="best"/>
   <vehicle id="N2S_67" type="ego_car" route="N2S" depart="579" departSpeed="10" departLane="best"/>
   <vehicle id="N2S_68" type="ego_car" route="N2S" depart="588" departSpeed="10" departLane="best"/>
   <vehicle id="W2E_69" type="ego_car" route="W2E" depart="598" departSpeed="10" departLane="best"/>
   <vehicle id="W2E_70" type="ego_car" route="W2E" depart="598" departSpeed="10" departLane="best"/>
   <vehicle id="W2E_71" type="ego_car" route="W2E" depart="611" departSpeed="10" departLane="best"/>
   <vehicle id="N2S_72" type="ego_car" route="N2S" depart="612" departSpeed="10" departLane="best"/>
   <vehicle id="W2E_73" type="ego_car" route="W2E" depart="616" departSpeed="10" departLane="best"/>
   <vehicle id="E2W_74" type="ego_car" route="E2W" depart="616" departSpeed="10" departLane="best"/>
   <vehicle id="E2W_75" type="ego_car" route="E2W" depart="619" departSpeed="10" departLane="best"/>
   <vehicle id="N2S_76" type="ego_car" route="N2S" depart="620" departSpeed="10" departLane="best"/>
   <vehicle id="S2N_77" type="ego_car" route="S2N" depart="624" departSpeed="10" departLane="best"/>
   <vehicle id="N2S_78" type="ego_car" route="N2S" depart="637" departSpeed="10" departLane="best"/>
   <vehicle id="S2N_79" type="ego_car" route="S2N" depart="638" departSpeed="10" departLane="best"/>
   <vehicle id="S2N_80" type="ego_car" route="S2N" depart="649" departSpeed="10" departLane="best"/>
   <vehicle id="S2N_81" type="ego_car" route="S2N" depart="651" departSpeed="10" departLane="best"/>
   <vehicle id="W2E_82" type="ego_car" route="W2E" depart="660" departSpeed="10" departLane="best"/>
   <vehicle id="E2W_83" type="ego_car" route="E2W" depart="666" departSpeed="10" departLane="best"/>
   <vehicle id="E2W_84" type="ego_car" route="E2W" depart="670" departSpeed="10" departLane="best"/>
   <vehicle id="S2N_85" type="ego_car" route="S2N" depart="679" departSpeed="10" departLane="best"/>
   <vehicle id="E2W_86" type="ego_car" route="E2W" depart="683" departSpeed="10" departLane="best"/>
   <vehicle id="N2S_87" type="ego_car" route="N2S" depart="688" departSpeed="10" departLane="best"/>
   <vehicle id="S2N_88" type="ego_car" route="S2N" depart="690" departSpeed="10" departLane="best"/>
   <vehicle id="E2W_89" type="ego_car" route="E2W" depart="694" departSpeed="10" departLane="best"/>
   <vehicle id="E2W_90" type="ego_car" route="E2W" depart="697" departSpeed="10" departLane="best"/>
   <vehicle id="S2N_91" type="ego_car" route="S2N" depart="698" departSpeed="10" departLane="best"/>
   <vehicle id="N2S_92" type="ego_car" route="N2S" depart="710" departSpeed="10" departLane="best"/>
   <vehicle id="W2E_93" type="ego_car" route="W2E" depart="713" departSpeed="10" departLane="best"/>
   <vehicle id="N2S_94" type="ego_car" route="N2S" depart="716" departSpeed="10" departLane="best"/>
   <vehicle id="N2S_95" type="ego_car" route="N2S" depart="716" departSpeed="10" departLane="best"/>
   <vehicle id="E2W_96" type="ego_car" route="E2W" depart="719" departSpeed="10" departLane="best"/>
   <vehicle id="S2N_97" type="ego_car" route="S2N" depart="728" departSpeed="10" departLane="best"/>
   <vehicle id="E2W_98" type="ego_car" route="E2W" depart="735" departSpeed="10" departLane="best"/>
   <vehicle id="E2W_99" type="ego_car" route="E2W" depart="738" departSpeed="10" departLane="best"/>
   <vehicle id="W2E_100" type="ego_car" route="W2E" depart="739" departSpeed="10" departLane="best"/>
   <vehicle id="S2N_101" type="ego_car" route="S2N" depart="739" departSpeed="10" departLane="best"/>
   <vehicle id="N2S_102" type="ego_car" route="N2S" depart="758" departSpeed="10" departLane="best"/>
   <vehicle id="E2W_103" type="ego_car" route="E2W" depart="762" departSpeed="10" departLane="best"/>
   <vehicle id="S2N_104" type="ego_car" route="S2N" depart="764" departSpeed="10" departLane="best"/>
   <vehicle id="N2S_105" type="ego_car" route="N2S" depart="770" departSpeed="10" departLane="best"/>
   <vehicle id="E2W_106" type="ego_car" route="E2W" depart="773" departSpeed="10" departLane="best"/>
   <vehicle id="W2E_107" type="ego_car" route="W2E" depart="779" departSpeed="10" departLane="best"/>
   <vehicle id="E2W_108" type="ego_car" route="E2W" depart="782" departSpeed="10" departLane="best"/>
   <vehicle id="E2W_109" type="ego_car" route="E2W" depart="784" departSpeed="10" departLane="best"/>
   <vehicle id="S2N_110" type="ego_car" route="S2N" depart="789" departSpeed="10" departLane="best"/>
   <vehicle id="E2W_111" type="ego_car" route="E2W" depart="792" departSpeed="10" departLane="best"/>
   <vehicle id="N2S_112" type="ego_car" route="N2S" depart="801" departSpeed="10" departLane="best"/>
   <vehicle id="E2W_113" type="ego_car" route="E2W" depart="802" departSpeed="10" departLane="best"/>
   <vehicle id="E2W_114" type="ego_car" route="E2W" depart="803" departSpeed="10" departLane="best"/>
   <vehicle id="S2N_115" type="ego_car" route="S2N" depart="806" departSpeed="10" departLane="best"/>
   <vehicle id="S2N_116" type="ego_car" route="S2N" depart="811" departSpeed="10" departLane="best"/>
   <vehicle id="N2S_117" type="ego_car" route="N2S" depart="812" departSpeed="10" departLane="best"/>
   <vehicle id="S2N_118" type="ego_car" route="S2N" depart="813" departSpeed="10" departLane="best"/>
   <vehicle id="N2S_119" type="ego_car" route="N2S" depart="816" departSpeed="10" departLane="best"/>
   <vehicle id="S2N_120" type="ego_car" route="S2N" depart="817" departSpeed="10" departLane="best"/>
   <vehicle id="N2S_121" type="ego_car" route="N2S" depart="818" departSpeed="10" departLane="best"/>
   <vehicle id="W2E_122" type="ego_car" route="W2E" depart="819" departSpeed="10" departLane="best"/>
   <vehicle id="E2W_123" type="ego_car" route="E2W" depart="820" departSpeed="10" departLane="best"/>
   <vehicle id="S2N_124" type="ego_car" route="S2N" depart="829" departSpeed="10" departLane="best"/>
   <vehicle id="W2E_125" type="ego_car" route="W2E" depart="832" departSpeed="10" departLane="best"/>
   <vehicle id="W2E_126" type="ego_car" route="W2E" depart="833" departSpeed="10" departLane="best"/>
   <vehicle id="W2E_127" type="ego_car" route="W2E" depart="847" departSpeed="10" departLane="best"/>
   <vehicle id="S2N_128" type="ego_car" route="S2N" depart="848" departSpeed="10" departLane="best"/>
   <vehicle id="S2N_129" type="ego_car" route="S2N" depart="848" departSpeed="10" departLane="best"/>
   <vehicle id="N2S_130" type="ego_car" route="N2S" depart="851" departSpeed="10" departLane="best"/>
   <vehicle id="S2N_131" type="ego_car" route="S2N" depart="854" departSpeed="10" departLane="best"/>
   <vehicle id="E2W_132" type="ego_car" route="E2W" depart="854" departSpeed="10" departLane="best"/>
   <vehicle id="S2N_133" type="ego_car" route="S2N" depart="855" departSpeed="10" departLane="best"/>
   <vehicle id="W2E_134" type="ego_car" route="W2E" depart="866" departSpeed="10" departLane="best"/>
   <vehicle id="N2S_135" type="ego_car" route="N2S" depart="872" departSpeed="10" departLane="best"/>
   <vehicle id="N2S_136" type="ego_car" route="N2S" depart="873" departSpeed="10" departLane="best"/>
   <vehicle id="W2E_137" type="ego_car" route="W2E" depart="874" departSpeed="10" departLane="best"/>
   <vehicle id="N2S_138" type="ego_car" route="N2S" depart="874" departSpeed="10" departLane="best"/>
   <vehicle id="E2W_139" type="ego_car" route="E2W" depart="882" departSpeed="10" departLane="best"/>
   <vehicle id="N2S_140" type="ego_car" route="N2S" depart="886" departSpeed="10" departLane="best"/>
   <vehicle id="N2S_141" type="ego_car" route="N2S" depart="887" departSpeed="10" departLane="best"/>
   <vehicle id="W2E_142" type="ego_car" route="W2E" depart="906" departSpeed="10" departLane="best"/>
   <vehicle id="S2N_143" type="ego_car" route="S2N" depart="906" departSpeed="10" departLane="best"/>
   <vehicle id="E2W_144" type="ego_car" route="E2W" depart="913" departSpeed="10" departLane="best"/>
   <vehicle id="S2N_145" type="ego_car" route="S2N" depart="915" departSpeed="10" departLane="best"/>
   <vehicle id="N2S_146" type="ego_car" route="N2S" depart="916" departSpeed="10" departLane="best"/>
   <vehicle id="E2W_147" type="ego_car" route="E2W" depart="916" departSpeed="10" departLane="best"/>
   <vehicle id="E2W_148" type="ego_car" route="E2W" depart="918" departSpeed="10" departLane="best"/>
   <vehicle id="N2S_149" type="ego_car" route="N2S" depart="920" departSpeed="10" departLane="best"/>
   <vehicle id="E2W_150" type="ego_car" route="E2W" depart="928" departSpeed="10" departLane="best"/>
   <vehicle id="E2W_151" type="ego_car" route="E2W" depart="947" departSpeed="10" departLane="best"/>
   <vehicle id="S2N_152" type="ego_car" route="S2N" depart="949" departSpeed="10" departLane="best"/>
   <vehicle id="S2N_153" type="ego_car" route="S2N" depart="958" departSpeed="10" departLane="best"/>
   <vehicle id="N2S_154" type="ego_car" route="N2S" depart="960" departSpeed="10" departLane="best"/>
   <vehicle id="W2E_155" type="ego_car" route="W2E" depart="964" departSpeed="10" departLane="best"/>
   <vehicle id="S2N_156" type="ego_car" route="S2N" depart="974" departSpeed="10" departLane="best"/>
   <vehicle id="E2W_157" type="ego_car" route="E2W" depart="974" departSpeed="10" departLane="best"/>
   <vehicle id="S2N_158" type="ego_car" route="S2N" depart="978" departSpeed="10" departLane="best"/>
   <vehicle id="S2N_159" type="ego_car" route="S2N" depart="980" departSpeed="10" departLane="best"/>
   <vehicle id="N2S_160" type="ego_car" route="N2S" depart="984" departSpeed="10" departLane="best"/>
   <vehicle id="W2E_161" type="ego_car" route="W2E" depart="995" departSpeed="10" departLane="best"/>
   <vehicle id="W2E_162" type="ego_car" route="W2E" depart="999" departSpeed="10" departLane="best"/>
   <vehicle id="N2S_163" type="ego_car" route="N2S" depart="1000" departSpeed="10" departLane="best"/>
   <vehicle id="N2S_164" type="ego_car" route="N2S" depart="1010" departSpeed="10" departLane="best"/>
   <vehicle id="N2S_165" type="ego_car" route="N2S" depart="1019" departSpeed="10" departLane="best"/>
   <vehicle id="E2W_166" type="ego_car" route="E2W" depart="1020" departSpeed="10" departLane="best"/>
   <vehicle id="E2W_167" type="ego_car" route="E2W" depart="1022" departSpeed="10" departLane="best"/>
   <vehicle id="S2N_168" type="ego_car" route="S2N" depart="1023" departSpeed="10" departLane="best"/>
   <vehicle id="N2S_169" type="ego_car" route="N2S" depart="1032" departSpeed="10" departLane="best"/>
   <vehicle id="E2W_170" type="ego_car" route="E2W" depart="1033" departSpeed="10" departLane="best"/>
   <vehicle id="E2W_171" type="ego_car" route="E2W" depart="1039" departSpeed="10" departLane="best"/>
   <vehicle id="N2S_172" type="ego_car" route="N2S" depart="1044" departSpeed="10" departLane="best"/>
   <vehicle id="S2N_173" type="ego_car" route="S2N" depart="1066" departSpeed="10" departLane="best"/>
   <vehicle id="E2W_174" type="ego_car" route="E2W" depart="1066" departSpeed="10" departLane="best"/>
   <vehicle id="W2E_175" type="ego_car" route="W2E" depart="1071" departSpeed="10" departLane="best"/>
   <vehicle id="N2S_176" type="ego_car" route="N2S" depart="1078" departSpeed="10" departLane="best"/>
   <vehicle id="W2E_177" type="ego_car" route="W2E" depart="1079" departSpeed="10" departLane="best"/>
   <vehicle id="W2E_178" type="ego_car" route="W2E" depart="1085" departSpeed="10" departLane="best"/>
   <vehicle id="W2E_179" type="ego_car" route="W2E" depart="1085" departSpeed="10" departLane="best"/>
   <vehicle id="N2S_180" type="ego_car" route="N2S" depart="1090" departSpeed="10" departLane="best"/>
   <vehicle id="W2E_181" type="ego_car" route="W2E" depart="1091" departSpeed="10" departLane="best"/>
   <vehicle id="W2E_182" type="ego_car" route="W2E" depart="1093" departSpeed="10" departLane="best"/>
   <vehicle id="N2S_183" type="ego_car" route="N2S" depart="1093" departSpeed="10" departLane="best"/>
   <vehicle id="W2E_184" type="ego_car" route="W2E" depart="1097" departSpeed="10" departLane="best"/>
   <vehicle id="S2N_185" type="ego_car" route="S2N" depart="1102" departSpeed="10" departLane="best"/>
   <vehicle id="N2S_186" type="ego_car" route="N2S" depart="1104" departSpeed="10" departLane="best"/>
   <vehicle id="N2S_187" type="ego_car" route="N2S" depart="1105" departSpeed="10" departLane="best"/>
   <vehicle id="N2S_188" type="ego_car" route="N2S" depart="1105" departSpeed="10" departLane="best"/>
   <vehicle id="N2S_189" type="ego_car" route="N2S" depart="1110" departSpeed="10" departLane="best"/>
   <vehicle id="N2S_190" type="ego_car" route="N2S" depart="1114" departSpeed="10" departLane="best"/>
   <vehicle id="S2N_191" type="ego_car" route="S2N" depart="1119" departSpeed="10" departLane="best"/>
   <vehicle id="N2S_192" type="ego_car" route="N2S" depart="1132" departSpeed="10" departLane="best"/>
   <vehicle id="W2E_193" type="ego_car" route="W2E" depart="1135" departSpeed="10" departLane="best"/>
   <vehicle id="W2E_194" type="ego_car" route="W2E" depart="1138" departSpeed="10" departLane="best"/>
   <vehicle id="S2N_195" type="ego_car" route="S2N" depart="1141" departSpeed="10" departLane="best"/>
   <vehicle id="S2N_196" type="ego_car" route="S2N" depart="1142" departSpeed="10" departLane="best"/>
   <vehicle id="E2W_197" type="ego_car" route="E2W" depart="1145" departSpeed="10" departLane="best"/>
   <vehicle id="E2W_198" type="ego_car" route="E2W" depart="1146" departSpeed="10" departLane="best"/>
   <vehicle id="S2N_199" type="ego_car" route="S2N" depart="1149" departSpeed="10" departLane="best"/>
   <vehicle id="W2E_200" type="ego_car" route="W2E" depart="1150" departSpeed="10" departLane="best"/>
   <vehicle id="N2S_201" type="ego_car" route="N2S" depart="1152" departSpeed="10" departLane="best"/>
   <vehicle id="S2N_202" type="ego_car" route="S2N" depart="1162" departSpeed="10" departLane="best"/>
   <vehicle id="W2E_203" type="ego_car" route="W2E" depart="1165" departSpeed="10" departLane="best"/>
   <vehicle id="S2N_204" type="ego_car" route="S2N" depart="1166" departSpeed="10" departLane="best"/>
   <vehicle id="E2W_205" type="ego_car" route="E2W" depart="1166" departSpeed="10" departLane="best"/>
   <vehicle id="S2N_206" type="ego_car" route="S2N" depart="1174" departSpeed="10" departLane="best"/>
   <vehicle id="E2W_207" type="ego_car" route="E2W" depart="1178" departSpeed="10" departLane="best"/>
   <vehicle id="N2S_208" type="ego_car" route="N2S" depart="1180" departSpeed="10" departLane="best"/>
   <vehicle id="N2S_209" type="ego_car" route="N2S" depart="1182" departSpeed="10" departLane="best"/>
   <vehicle id="N2S_210" type="ego_car" route="N2S" depart="1183" departSpeed="10" departLane="best"/>
   <vehicle id="W2E_211" type="ego_car" route="W2E" depart="1186" departSpeed="10" departLane="best"/>
   <vehicle id="N2S_212" type="ego_car" route="N2S" depart="1186" departSpeed="10" departLane="best"/>
   <vehicle id="N2S_213" type="ego_car" route="N2S" depart="1193" departSpeed="10" departLane="best"/>
   <vehicle id="W2E_214" type="ego_car" route="W2E" depart="1200" departSpeed="10" departLane="best"/>
   <vehicle id="S2N_215" type="ego_car" route="S2N" depart="1202" departSpeed="10" departLane="best"/>
   <vehicle id="W2E_216" type="ego_car" route="W2E" depart="1210" departSpeed="10" departLane="best"/>
   <vehicle id="S2N_217" type="ego_car" route="S2N" depart="1210" departSpeed="10" departLane="best"/>
   <vehicle id="S2N_218" type="ego_car" route="S2N" depart="1226" departSpeed="10" departLane="best"/>
   <vehicle id="S2N_219" type="ego_car" route="S2N" depart="1226" departSpeed="10" departLane="best"/>
   <vehicle id="E2W_220" type="ego_car" route="E2W" depart="1226" departSpeed="10" departLane="best"/>
   <vehicle id="S2N_221" type="ego_car" route="S2N" depart="1227" departSpeed="10" departLane="best"/>
   <vehicle id="N2S_222" type="ego_car" route="N2S" depart="1227" departSpeed="10" departLane="best"/>
   <vehicle id="S2N_223" type="ego_car" route="S2N" depart="1231" departSpeed="10" departLane="best"/>
   <vehicle id="E2W_224" type="ego_car" route="E2W" depart="1238" departSpeed="10" departLane="best"/>
   <vehicle id="E2W_225" type="ego_car" route="E2W" depart="1238" departSpeed="10" departLane="best"/>
   <vehicle id="N2S_226" type="ego_car" route="N2S" depart="1247" departSpeed="10" departLane="best"/>
   <vehicle id="S2N_227" type="ego_car" route="S2N" depart="1251" departSpeed="10" departLane="best"/>
   <vehicle id="W2E_228" type="ego_car" route="W2E" depart="1257" departSpeed="10" departLane="best"/>
   <vehicle id="N2S_229" type="ego_car" route="N2S" depart="1257" departSpeed="10" departLane="best"/>
   <vehicle id="E2W_230" type="ego_car" route="E2W" depart="1263" departSpeed="10" departLane="best"/>
   <vehicle id="N2S_231" type="ego_car" route="N2S" depart="1263" departSpeed="10" departLane="best"/>
   <vehicle id="E2W_232" type="ego_car" route="E2W" depart="1264" departSpeed="10" departLane="best"/>
   <vehicle id="N2S_233" type="ego_car" route="N2S" depart="1266" departSpeed="10" departLane="best"/>
   <vehicle id="E2W_234" type="ego_car" route="E2W" depart="1272" departSpeed="10" departLane="best"/>
   <vehicle id="N2S_235" type="ego_car" route="N2S" depart="1272" departSpeed="10" departLane="best"/>
   <vehicle id="N2S_236" type="ego_car" route="N2S" depart="1275" departSpeed="10" departLane="best"/>
   <vehicle id="N2S_237" type="ego_car" route="N2S" depart="1286" departSpeed="10" departLane="best"/>
   <vehicle id="N2S_238" type="ego_car" route="N2S" depart="1291" departSpeed="10" departLane="best"/>
   <vehicle id="N2S_239" type="ego_car" route="N2S" depart="1295" departSpeed="10" departLane="best"/>
   <vehicle id="W2E_240" type="ego_car" route="W2E" depart="1304" departSpeed="10" departLane="best"/>
   <vehicle id="E2W_241" type="ego_car" route="E2W" depart="1314" departSpeed="10" departLane="best"/>
   <vehicle id="S2N_242" type="ego_car" route="S2N" depart="1319" departSpeed="10" departLane="best"/>
   <vehicle id="N2S_243" type="ego_car" route="N2S" depart="1322" departSpeed="10" departLane="best"/>
   <vehicle id="S2N_244" type="ego_car" route="S2N" depart="1325" departSpeed="10" departLane="best"/>
   <vehicle id="S2N_245" type="ego_car" route="S2N" depart="1327" departSpeed="10" departLane="best"/>
   <vehicle id="S2N_246" type="ego_car" route="S2N" depart="1327" departSpeed="10" departLane="best"/>
   <vehicle id="N2S_247" type="ego_car" route="N2S" depart="1333" departSpeed="10" departLane="best"/>
   <vehicle id="W2E_248" type="ego_car" route="W2E" depart="1336" departSpeed="10" departLane="best"/>
   <vehicle id="W2E_249" type="ego_car" route="W2E" depart="1339" departSpeed="10" departLane="best"/>
   <vehicle id="N2S_250" type="ego_car" route="N2S" depart="1343" departSpeed="10" departLane="best"/>
   <vehicle id="N2S_251" type="ego_car" route="N2S" depart="1349" departSpeed="10" departLane="best"/>
   <vehicle id="W2E_252" type="ego_car" route="W2E" depart="1351" departSpeed="10" departLane="best"/>
   <vehicle id="E2W_253" type="ego_car" route="E2W" depart="1352" departSpeed="10" departLane="best"/>
   <vehicle id="W2E_254" type="ego_car" route="W2E" depart="1358" departSpeed="10" departLane="best"/>
   <vehicle id="S2N_255" type="ego_car" route="S2N" depart="1358" departSpeed="10" departLane="best"/>
   <vehicle id="E2W_256" type="ego_car" route="E2W" depart="1362" departSpeed="10" departLane="best"/>
   <vehicle id="S2N_257" type="ego_car" route="S2N" depart="1366" departSpeed="10" departLane="best"/>
   <vehicle id="S2N_258" type="ego_car" route="S2N" depart="1367" departSpeed="10" departLane="best"/>
   <vehicle id="N2S_259" type="ego_car" route="N2S" depart="1367" departSpeed="10" departLane="best"/>
   <vehicle id="E2W_260" type="ego_car" route="E2W" depart="1372" departSpeed="10" departLane="best"/>
   <vehicle id="N2S_261" type="ego_car" route="N2S" depart="1374" departSpeed="10" departLane="best"/>
   <vehicle id="S2N_262" type="ego_car" route="S2N" depart="1377" departSpeed="10" departLane="best"/>
   <vehicle id="E2W_263" type="ego_car" route="E2W" depart="1386" departSpeed="10" departLane="best"/>
   <vehicle id="W2E_264" type="ego_car" route="W2E" depart="1388" departSpeed="10" departLane="best"/>
   <vehicle id="N2S_265" type="ego_car" route="N2S" depart="1393" departSpeed="10" departLane="best"/>
   <vehicle id="N2S_266" type="ego_car" route="N2S" depart="1394" departSpeed="10" departLane="best"/>
   <vehicle id="S2N_267" type="ego_car" route="S2N" depart="1397" departSpeed="10" departLane="best"/>
   <vehicle id="E2W_268" type="ego_car" route="E2W" depart="1402" departSpeed="10" departLane="best"/>
   <vehicle id="S2N_269" type="ego_car" route="S2N" depart="1403" departSpeed="10" departLane="best"/>
   <vehicle id="W2E_270" type="ego_car" route="W2E" depart="1408" departSpeed="10" departLane="best"/>
   <vehicle id="S2N_271" type="ego_car" route="S2N" depart="1412" departSpeed="10" departLane="best"/>
   <vehicle id="N2S_272" type="ego_car" route="N2S" depart="1419" departSpeed="10" departLane="best"/>
   <vehicle id="W2E_273" type="ego_car" route="W2E" depart="1420" departSpeed="10" departLane="best"/>
   <vehicle id="S2N_274" type="ego_car" route="S2N" depart="1421" departSpeed="10" departLane="best"/>
   <vehicle id="N2S_275" type="ego_car" route="N2S" depart="1437" departSpeed="10" departLane="best"/>
   <vehicle id="E2W_276" type="ego_car" route="E2W" depart="1438" departSpeed="10" departLane="best"/>
   <vehicle id="W2E_277" type="ego_car" route="W2E" depart="1442" departSpeed="10" departLane="best"/>
   <vehicle id="N2S_278" type="ego_car" route="N2S" depart="1453" departSpeed="10" departLane="best"/>
   <vehicle id="E2W_279" type="ego_car" route="E2W" depart="1456" departSpeed="10" departLane="best"/>
   <vehicle id="E2W_280" type="ego_car" route="E2W" depart="1469" departSpeed="10" departLane="best"/>
   <vehicle id="W2E_281" type="ego_car" route="W2E" depart="1470" departSpeed="10" departLane="best"/>
   <vehicle id="S2N_282" type="ego_car" route="S2N" depart="1476" departSpeed="10" departLane="best"/>
   <vehicle id="E2W_283" type="ego_car" route="E2W" depart="1505" departSpeed="10" departLane="best"/>
   <vehicle id="E2W_284" type="ego_car" route="E2W" depart="1525" departSpeed="10" departLane="best"/>
   <vehicle id="S2N_285" type="ego_car" route="S2N" depart="1526" departSpeed="10" departLane="best"/>
   <vehicle id="S2N_286" type="ego_car" route="S2N" depart="1534" departSpeed="10" departLane="best"/>
   <vehicle id="E2W_287" type="ego_car" route="E2W" depart="1536" departSpeed="10" departLane="best"/>
   <vehicle id="N2S_288" type="ego_car" route="N2S" depart="1542" departSpeed="10" departLane="best"/>
   <vehicle id="E2W_289" type="ego_car" route="E2W" depart="1551" departSpeed="10" departLane="best"/>
   <vehicle id="E2W_290" type="ego_car" route="E2W" depart="1565" departSpeed="10" departLane="best"/>