<routes>

        <vType id = 'ego_car' vclass="evehicle" emissionClass="Energy" tau="1.5" accel="3.0" decel="3.0" color="#00FFFF" sigma="0.2" length="4.90" minGap="1.0" maxSpeed="20" carFollowing="IDM" guiShape="passenger"/>

        <route id="N2S" edges="NS -SN"/>
        <route id="S2N" edges="SN -NS"/>
        <route id="W2E" edges="WE -EW"/>
        <route id="E2W" edges="EW -WE"/>
   <vehicle id="N2S_1" type="ego_car" route="N2S" depart="6" departSpeed="10" departLane="best"/>
   <vehicle id="W2E_2" type="ego_car" route="W2E" depart="11" departSpeed="10" departLane="best"/>
   <vehicle id="W2E_3" type="ego_car" route="W2E" depart="12" departSpeed="10" departLane="best"/>
   <vehicle id="W2E_4" type="ego_car" route="W2E" depart="15" departSpeed="10" departLane="best"/>
   <vehicle id="S2N_5" type="ego_car" route="S2N" depart="16" departSpeed="10" departLane="best"/>
   <vehicle id="E2W_6" type="ego_car" route="E2W" depart="20" departSpeed="10" departLane="best"/>
   <vehicle id="E2W_7" type="ego_car" route="E2W" depart="24" departSpeed="10" departLane="best"/>
   <vehicle id="E2W_8" type="ego_car" route="E2W" depart="25" departSpeed="10" departLane="best"/>
   <vehicle id="E2W_9" type="ego_car" route="E2W" depart="26" departSpeed="10" departLane="best"/>
   <vehicle id="E2W_10" type="ego_car" route="E2W" depart="26" departSpeed="10" departLane="best"/>
   <vehicle id="E2W_11" type="ego_car" route="E2W" depart="26" departSpeed="10" departLane="best"/>
   <vehicle id="N2S_12" type="ego_car" route="N2S" depart="28" departSpeed="10" departLane="best"/>
   <vehicle id="W2E_13" type="ego_car" route="W2E" depart="29" departSpeed="10" departLane="best"/>
   <vehicle id="S2N_14" type="ego_car" route="S2N" depart="30" departSpeed="10" departLane="best"/>
   <vehicle id="W2E_15" type="ego_car" route="W2E" depart="32" departSpeed="10" departLane="best"/>
   <vehicle id="N2S_16" type="ego_car" route="N2S" depart="33" departSpeed="10" departLane="best"/>
   <vehicle id="W2E_17" type="ego_car" route="W2E" depart="34" departSpeed="10" departLane="best"/>
   <vehicle id="S2N_18" type="ego_car" route="S2N" depart="35" departSpeed="10" departLane="best"/>
   <vehicle id="N2S_19" type="ego_car" route="N2S" depart="35" departSpeed="10" departLane="best"/>
   <vehicle id="W2E_20" type="ego_car" route="W2E" depart="36" departSpeed="10" departLane="best"/>
   <vehicle id="W2E_21" type="ego_car" route="W2E" depart="36" departSpeed="10" departLane="best"/>
   <vehicle id="W2E_22" type="ego_car" route="W2E" depart="37" departSpeed="10" departLane="best"/>
   <vehicle id="W2E_23" type="ego_car" route="W2E" depart="37" departSpeed="10" departLane="best"/>
   <vehicle id="W2E_24" type="ego_car" route="W2E" depart="40" departSpeed="10" departLane="best"/>
   <vehicle id="S2N_25" type="ego_car" route="S2N" depart="41" departSpeed="10" departLane="best"/>
   <vehicle id="N2S_26" type="ego_car" route="N2S" depart="42" departSpeed="10" departLane="best"/>
   <vehicle id="E2W_27" type="ego_car" route="E2W" depart="46" departSpeed="10" departLane="best"/>
   <vehicle id="S2N_28" type="ego_car" route="S2N" depart="47" departSpeed="10" departLane="best"/>
   <vehicle id="W2E_29" type="ego_car" route="W2E" depart="47" departSpeed="10" departLane="best"/>
   <vehicle id="W2E_30" type="ego_car" route="W2E" depart="47" departSpeed="10" departLane="best"/>
   <vehicle id="N2S_31" type="ego_car" route="N2S" depart="50" departSpeed="10" departLane="best"/>
   <vehicle id="S2N_32" type="ego_car" route="S2N" depart="50" departSpeed="10" departLane="best"/>
   <vehicle id="N2S_33" type="ego_car" route="N2S" depart="51" departSpeed="10" departLane="best"/>
   <vehicle id="S2N_34" type="ego_car" route="S2N" depart="51" departSpeed="10" departLane="best"/>
   <vehicle id="W2E_35" type="ego_car" route="W2E" depart="51" departSpeed="10" departLane="best"/>
   <vehicle id="W2E_36" type="ego_car" route="W2E" depart="52" departSpeed="10" departLane="best"/>
   <vehicle id="S2N_37" type="ego_car" route="S2N" depart="53" departSpeed="10" departLane="best"/>
   <vehicle id="W2E_38" type="ego_car" route="W2E" depart="55" departSpeed="10" departLane="best"/>
   <vehicle id="S2N_39" type="ego_car" route="S2N" depart="56" departSpeed="10" departLane="best"/>
   <vehicle id="N2S_40" type="ego_car" route="N2S" depart="58" departSpeed="10" departLane="best"/>
   <vehicle id="N2S_41" type="ego_car" route="N2S" depart="59" departSpeed="10" departLane="best"/>
   <vehicle id="W2E_42" type="ego_car" route="W2E" depart="60" departSpeed="10" departLane="best"/>
   <vehicle id="N2S_43" type="ego_car" route="N2S" depart="61" departSpeed="10" departLane="best"/>
   <vehicle id="N2S_44" type="ego_car" route="N2S" depart="62" departSpeed="10" departLane="best"/>
   <vehicle id="N2S_45" type="ego_car" route="N2S" depart="63" departSpeed="10" departLane="best"/>
   <vehicle id="E2W_46" type="ego_car" route="E2W" depart="64" departSpeed="10" departLane="best"/>
   <vehicle id="E2W_47" type="ego_car" route="E2W" depart="65" departSpeed="10" departLane="best"/>
   <vehicle id="W2E_48" type="ego_car" route="W2E" depart="65" departSpeed="10" departLane="best"/>
   <vehicle id="W2E_49" type="ego_car" route="W2E" depart="65" departSpeed="10" departLane="best"/>
   <vehicle id="W2E_50" type="ego_car" route="W2E" depart="67" departSpeed="10" departLane="best"/>
   <vehicle id="E2W_51" type="ego_car" route="E2W" depart="68" departSpeed="10" departLane="best"/>
   <vehicle id="E2W_52" type="ego_car" route="E2W" depart="68" departSpeed="10" departLane="best"/>
   <vehicle id="N2S_53" type="ego_car" route="N2S" depart="68" departSpeed="10" departLane="best"/>
   <vehicle id="N2S_54" type="ego_car" route="N2S" depart="68" departSpeed="10" departLane="best"/>
   <vehicle id="E2W_55" type="ego_car" route="E2W" depart="69" departSpeed="10" departLane="best"/>
   <vehicle id="S2N_56" type="ego_car" route="S2N" depart="70" departSpeed="10" departLane="best"/>
   <vehicle id="W2E_57" type="ego_car" route="W2E" depart="70" departSpeed="10" departLane="best"/>
   <vehicle id="N2S_58" type="ego_car" route="N2S" depart="71" departSpeed="10" departLane="best"/>
   <vehicle id="N2S_59" type="ego_car" route="N2S" depart="71" departSpeed="10" departLane="best"/>
   <vehicle id="N2S_60" type="ego_car" route="N2S" depart="74" departSpeed="10" departLane="best"/>
   <vehicle id="W2E_61" type="ego_car" route="W2E" depart="74" departSpeed="10" departLane="best"/>
   <vehicle id="S2N_62" type="ego_car" route="S2N" depart="75" departSpeed="10" departLane="best"/>
   <vehicle id="S2N_63" type="ego_car" route="S2N" depart="75" departSpeed="10" departLane="best"/>
   <vehicle id="N2S_64" type="ego_car" route="N2S" depart="75" departSpeed="10" departLane="best"/>
   <vehicle id="W2E_65" type="ego_car" route="W2E" depart="75" departSpeed="10" departLane="best"/>
   <vehicle id="E2W_66" type="ego_car" route="E2W" depart="76" departSpeed="10" departLane="best"/>
   <vehicle id="N2S_67" type="ego_car" route="N2S" depart="76" departSpeed="10" departLane="best"/>
   <vehicle id="N2S_68" type="ego_car" route="N2S" depart="76" departSpeed="10" departLane="best"/>
   <vehicle id="N2S_69" type="ego_car" route="N2S" depart="78" departSpeed="10" departLane="best"/>
   <vehicle id="W2E_70" type="ego_car" route="W2E" depart="78" departSpeed="10" departLane="best"/>
   <vehicle id="N2S_71" type="ego_car" route="N2S" depart="79" departSpeed="10" departLane="best"/>
   <vehicle id="W2E_72" type="ego_car" route="W2E" depart="79" departSpeed="10" departLane="best"/>
   <vehicle id="N2S_73" type="ego_car" route="N2S" depart="80" departSpeed="10" departLane="best"/>
   <vehicle id="N2S_74" type="ego_car" route="N2S" depart="80" departSpeed="10" departLane="best"/>
   <vehicle id="W2E_75" type="ego_car" route="W2E" depart="81" departSpeed="10" departLane="best"/>
   <vehicle id="E2W_76" type="ego_car" route="E2W" depart="83" departSpeed="10" departLane="best"/>
   <vehicle id="W2E_77" type="ego_car" route="W2E" depart="84" departSpeed="10" departLane="best"/>
   <vehicle id="S2N_78" type="ego_car" route="S2N" depart="86" departSpeed="10" departLane="best"/>
   <vehicle id="E2W_79" type="ego_car" route="E2W" depart="86" departSpeed="10" departLane="best"/>
   <vehicle id="W2E_80" type="ego_car" route="W2E" depart="91" departSpeed="10" departLane="best"/>
   <vehicle id="E2W_81" type="ego_car" route="E2W" depart="93" departSpeed="10" departLane="best"/>
   <vehicle id="S2N_82" type="ego_car" route="S2N" depart="94" departSpeed="10" departLane="best"/>
   <vehicle id="S2N_83" type="ego_car" route="S2N" depart="94" departSpeed="10" departLane="best"/>
   <vehicle id="S2N_84" type="ego_car" route="S2N" depart="94" departSpeed="10" departLane="best"/>
   <vehicle id="E2W_85" type="ego_car" route="E2W" depart="94" departSpeed="10" departLane="best"/>
   <vehicle id="S2N_86" type="ego_car" route="S2N" depart="97" departSpeed="10" departLane="best"/>
   <vehicle id="N2S_87" type="ego_car" route="N2S" depart="98" departSpeed="10" departLane="best"/>
   <vehicle id="N2S_88" type="ego_car" route="N2S" depart="98" departSpeed="10" departLane="best"/>
   <vehicle id="S2N_89" type="ego_car" route="S2N" depart="99" departSpeed="10" departLane="best"/>
   <vehicle id="E2W_90" type="ego_car" route="E2W" depart="99" departSpeed="10" departLane="best"/>
   <vehicle id="W2E_91" type="ego_car" route="W2E" depart="100" departSpeed="10" departLane="best"/>
   <vehicle id="E2W_92" type="ego_car" route="E2W" depart="103" departSpeed="10" departLane="best"/>
   <vehicle id="S2N_93" type="ego_car" route="S2N" depart="104" departSpeed="10" departLane="best"/>
   <vehicle id="N2S_94" type="ego_car" route="N2S" depart="104" departSpeed="10" departLane="best"/>
   <vehicle id="S2N_95" type="ego_car" route="S2N" depart="105" departSpeed="10" departLane="best"/>
   <vehicle id="S2N_96" type="ego_car" route="S2N" depart="109" departSpeed="10" departLane="best"/>
   <vehicle id="S2N_97" type="ego_car" route="S2N" depart="111" departSpeed="10" departLane="best"/>
   <vehicle id="S2N_98" type="ego_car" route="S2N" depart="114" departSpeed="10" departLane="best"/>
   <vehicle id="N2S_99" type="ego_car" route="N2S" depart="115" departSpeed="10" departLane="best"/>
   <vehicle id="S2N_100" type="ego_car" route="S2N" depart="117" departSpeed="10" departLane="best"/>
   <vehicle id="E2W_101" type="ego_car" route="E2W" depart="119" departSpeed="10" departLane="best"/>
   <vehicle id="E2W_102" type="ego_car" route="E2W" depart="126" departSpeed="10" departLane="best"/>
   <vehicle id="N2S_103" type="ego_car" route="N2S" depart="133" departSpeed="10" departLane="best"/>
   <vehicle id="W2E_104" type="ego_car" route="W2E" depart="134" departSpeed="10" departLane="best"/>
   <vehicle id="E2W_105" type="ego_car" route="E2W" depart="139" departSpeed="10" departLane="best"/>
   <vehicle id="S2N_106" type="ego_car" route="S2N" depart="139" departSpeed="10" departLane="best"/>
   <vehicle id="E2W_107" type="ego_car" route="E2W" depart="141" departSpeed="10" departLane="best"/>
   <vehicle id="E2W_108" type="ego_car" route="E2W" depart="141" departSpeed="10" departLane="best"/>
   <vehicle id="E2W_109" type="ego_car" route="E2W" depart="141" departSpeed="10" departLane="best"/>
   <vehicle id="E2W_110" type="ego_car" route="E2W" depart="144" departSpeed="10" departLane="best"/>
   <vehicle id="N2S_111" type="ego_car" route="N2S" depart="147" departSpeed="10" departLane="best"/>
   <vehicle id="E2W_112" type="ego_car" route="E2W" depart="150" departSpeed="10" departLane="best"/>
   <vehicle id="E2W_113" type="ego_car" route="E2W" depart="157" departSpeed="10" departLane="best"/>
   <vehicle id="S2N_114" type="ego_car" route="S2N" depart="158" departSpeed="10" departLane="best"/>
   <vehicle id="S2N_115" type="ego_car" route="S2N" depart="162" departSpeed="10" departLane="best"/>
   <vehicle id="S2N_116" type="ego_car" route="S2N" depart="170" departSpeed="10" departLane="best"/>
   <vehicle id="E2W_117" type="ego_car" route="E2W" depart="174" departSpeed="10" departLane="best"/>
   <vehicle id="S2N_118" type="ego_car" route="S2N" depart="183" departSpeed="10" departLane="best"/>
   <vehicle id="S2N_119" type="ego_car" route="S2N" depart="193" departSpeed="10" departLane="best"/>
   <vehicle id="E2W_120" type="ego_car" route="E2W" depart="197" departSpeed="10" departLane="best"/>
</routes>
