<routes>

        <vType id = 'ego_car' vclass="evehicle" emissionClass="Energy" tau="1.5" accel="3.0" decel="3.0" color="#00FFFF" sigma="0.2" length="4.90" minGap="1.0" maxSpeed="20" carFollowing="IDM" guiShape="passenger"/>

        <route id="N2S" edges="NS -SN"/>
        <route id="S2N" edges="SN -NS"/>
        <route id="W2E" edges="WE -EW"/>
        <route id="E2W" edges="EW -WE"/>
   <vehicle id="N2S_1" type="ego_car" route="N2S" depart="10" departSpeed="10" departLane="best"/>
   <vehicle id="W2E_2" type="ego_car" route="W2E" depart="10" departSpeed="10" departLane="best"/>
   <vehicle id="E2W_3" type="ego_car" route="E2W" depart="18" departSpeed="10" departLane="best"/>
   <vehicle id="W2E_4" type="ego_car" route="W2E" depart="20" departSpeed="10" departLane="best"/>
   <vehicle id="N2S_5" type="ego_car" route="N2S" depart="26" departSpeed="10" departLane="best"/>
   <vehicle id="E2W_6" type="ego_car" route="E2W" depart="26" departSpeed="10" departLane="best"/>
   <vehicle id="N2S_7" type="ego_car" route="N2S" depart="26" departSpeed="10" departLane="best"/>
   <vehicle id="W2E_8" type="ego_car" route="W2E" depart="27" departSpeed="10" departLane="best"/>
   <vehicle id="E2W_9" type="ego_car" route="E2W" depart="27" departSpeed="10" departLane="best"/>
   <vehicle id="N2S_10" type="ego_car" route="N2S" depart="30" departSpeed="10" departLane="best"/>
   <vehicle id="E2W_11" type="ego_car" route="E2W" depart="30" departSpeed="10" departLane="best"/>
   <vehicle id="N2S_12" type="ego_car" route="N2S" depart="30" departSpeed="10" departLane="best"/>
   <vehicle id="S2N_13" type="ego_car" route="S2N" depart="31" departSpeed="10" departLane="best"/>
   <vehicle id="W2E_14" type="ego_car" route="W2E" depart="31" departSpeed="10" departLane="best"/>
   <vehicle id="N2S_15" type="ego_car" route="N2S" depart="31" departSpeed="10" departLane="best"/>
   <vehicle id="S2N_16" type="ego_car" route="S2N" depart="32" departSpeed="10" departLane="best"/>
   <vehicle id="N2S_17" type="ego_car" route="N2S" depart="33" departSpeed="10" departLane="best"/>
   <vehicle id="E2W_18" type="ego_car" route="E2W" depart="34" departSpeed="10" departLane="best"/>
   <vehicle id="S2N_19" type="ego_car" route="S2N" depart="35" departSpeed="10" departLane="best"/>
   <vehicle id="W2E_20" type="ego_car" route="W2E" depart="35" departSpeed="10" departLane="best"/>
   <vehicle id="E2W_21" type="ego_car" route="E2W" depart="37" departSpeed="10" departLane="best"/>
   <vehicle id="S2N_22" type="ego_car" route="S2N" depart="38" departSpeed="10" departLane="best"/>
   <vehicle id="W2E_23" type="ego_car" route="W2E" depart="38" departSpeed="10" departLane="best"/>
   <vehicle id="S2N_24" type="ego_car" route="S2N" depart="39" departSpeed="10" departLane="best"/>
   <vehicle id="E2W_25" type="ego_car" route="E2W" depart="39" departSpeed="10" departLane="best"/>
   <vehicle id="S2N_26" type="ego_car" route="S2N" depart="40" departSpeed="10" departLane="best"/>
   <vehicle id="N2S_27" type="ego_car" route="N2S" depart="40" departSpeed="10" departLane="best"/>
   <vehicle id="E2W_28" type="ego_car" route="E2W" depart="40" departSpeed="10" departLane="best"/>
   <vehicle id="N2S_29" type="ego_car" route="N2S" depart="44" departSpeed="10" departLane="best"/>
   <vehicle id="E2W_30" type="ego_car" route="E2W" depart="44" departSpeed="10" departLane="best"/>
   <vehicle id="E2W_31" type="ego_car" route="E2W" depart="44" departSpeed="10" departLane="best"/>
   <vehicle id="W2E_32" type="ego_car" route="W2E" depart="45" departSpeed="10" departLane="best"/>
   <vehicle id="E2W_33" type="ego_car" route="E2W" depart="45" departSpeed="10" departLane="best"/>
   <vehicle id="N2S_34" type="ego_car" route="N2S" depart="46" departSpeed="10" departLane="best"/>
   <vehicle id="W2E_35" type="ego_car" route="W2E" depart="47" departSpeed="10" departLane="best"/>
   <vehicle id="E2W_36" type="ego_car" route="E2W" depart="47" departSpeed="10" departLane="best"/>
   <vehicle id="E2W_37" type="ego_car" route="E2W" depart="47" departSpeed="10" departLane="best"/>
   <vehicle id="N2S_38" type="ego_car" route="N2S" depart="49" departSpeed="10" departLane="best"/>
   <vehicle id="N2S_39" type="ego_car" route="N2S" depart="49" departSpeed="10" departLane="best"/>
   <vehicle id="E2W_40" type="ego_car" route="E2W" depart="50" departSpeed="10" departLane="best"/>
   <vehicle id="S2N_41" type="ego_car" route="S2N" depart="51" departSpeed="10" departLane="best"/>
   <vehicle id="S2N_42" type="ego_car" route="S2N" depart="52" departSpeed="10" departLane="best"/>
   <vehicle id="N2S_43" type="ego_car" route="N2S" depart="53" departSpeed="10" departLane="best"/>
   <vehicle id="W2E_44" type="ego_car" route="W2E" depart="56" departSpeed="10" departLane="best"/>
   <vehicle id="W2E_45" type="ego_car" route="W2E" depart="57" departSpeed="10" departLane="best"/>
   <vehicle id="W2E_46" type="ego_car" route="W2E" depart="64" departSpeed="10" departLane="best"/>
   <vehicle id="W2E_47" type="ego_car" route="W2E" depart="64" departSpeed="10" departLane="best"/>
   <vehicle id="S2N_48" type="ego_car" route="S2N" depart="66" departSpeed="10" departLane="best"/>
   <vehicle id="N2S_49" type="ego_car" route="N2S" depart="66" departSpeed="10" departLane="best"/>
   <vehicle id="S2N_50" type="ego_car" route="S2N" depart="67" departSpeed="10" departLane="best"/>
   <vehicle id="W2E_51" type="ego_car" route="W2E" depart="67" departSpeed="10" departLane="best"/>
   <vehicle id="W2E_52" type="ego_car" route="W2E" depart="67" departSpeed="10" departLane="best"/>
   <vehicle id="N2S_53" type="ego_car" route="N2S" depart="68" departSpeed="10" departLane="best"/>
   <vehicle id="E2W_54" type="ego_car" route="E2W" depart="71" departSpeed="10" departLane="best"/>
   <vehicle id="E2W_55" type="ego_car" route="E2W" depart="71" departSpeed="10" departLane="best"/>
   <vehicle id="E2W_56" type="ego_car" route="E2W" depart="73" departSpeed="10" departLane="best"/>
   <vehicle id="E2W_57" type="ego_car" route="E2W" depart="73" departSpeed="10" departLane="best"/>
   <vehicle id="W2E_58" type="ego_car" route="W2E" depart="74" departSpeed="10" departLane="best"/>
   <vehicle id="N2S_59" type="ego_car" route="N2S" depart="79" departSpeed="10" departLane="best"/>
   <vehicle id="W2E_60" type="ego_car" route="W2E" depart="79" departSpeed="10" departLane="best"/>
   <vehicle id="E2W_61" type="ego_car" route="E2W" depart="81" departSpeed="10" departLane="best"/>
   <vehicle id="E2W_62" type="ego_car" route="E2W" depart="81" departSpeed="10" departLane="best"/>
   <vehicle id="E2W_63" type="ego_car" route="E2W" depart="82" departSpeed="10" departLane="best"/>
   <vehicle id="S2N_64" type="ego_car" route="S2N" depart="83" departSpeed="10" departLane="best"/>
   <vehicle id="W2E_65" type="ego_car" route="W2E" depart="84" departSpeed="10" departLane="best"/>
   <vehicle id="S2N_66" type="ego_car" route="S2N" depart="87" departSpeed="10" departLane="best"/>
   <vehicle id="W2E_67" type="ego_car" route="W2E" depart="87" departSpeed="10" departLane="best"/>
   <vehicle id="W2E_68" type="ego_car" route="W2E" depart="90" departSpeed="10" departLane="best"/>
   <vehicle id="S2N_69" type="ego_car" route="S2N" depart="92" departSpeed="10" departLane="best"/>
   <vehicle id="W2E_70" type="ego_car" route="W2E" depart="92" departSpeed="10" departLane="best"/>
   <vehicle id="N2S_71" type="ego_car" route="N2S" depart="94" departSpeed="10" departLane="best"/>
   <vehicle id="W2E_72" type="ego_car" route="W2E" depart="94" departSpeed="10" departLane="best"/>
   <vehicle id="E2W_73" type="ego_car" route="E2W" depart="94" departSpeed="10" departLane="best"/>
   <vehicle id="S2N_74" type="ego_car" route="S2N" depart="95" departSpeed="10" departLane="best"/>
   <vehicle id="E2W_75" type="ego_car" route="E2W" depart="95" departSpeed="10" departLane="best"/>
   <vehicle id="N2S_76" type="ego_car" route="N2S" depart="96" departSpeed="10" departLane="best"/>
   <vehicle id="N2S_77" type="ego_car" route="N2S" depart="99" departSpeed="10" departLane="best"/>
   <vehicle id="S2N_78" type="ego_car" route="S2N" depart="100" departSpeed="10" departLane="best"/>
   <vehicle id="S2N_79" type="ego_car" route="S2N" depart="102" departSpeed="10" departLane="best"/>
   <vehicle id="N2S_80" type="ego_car" route="N2S" depart="103" departSpeed="10" departLane="best"/>
   <vehicle id="N2S_81" type="ego_car" route="N2S" depart="103" departSpeed="10" departLane="best"/>
   <vehicle id="N2S_82" type="ego_car" route="N2S" depart="104" departSpeed="10" departLane="best"/>
   <vehicle id="W2E_83" type="ego_car" route="W2E" depart="104" departSpeed="10" departLane="best"/>
   <vehicle id="S2N_84" type="ego_car" route="S2N" depart="108" departSpeed="10" departLane="best"/>
   <vehicle id="S2N_85" type="ego_car" route="S2N" depart="108" departSpeed="10" departLane="best"/>
   <vehicle id="S2N_86" type="ego_car" route="S2N" depart="109" departSpeed="10" departLane="best"/>
   <vehicle id="N2S_87" type="ego_car" route="N2S" depart="109" departSpeed="10" departLane="best"/>
   <vehicle id="N2S_88" type="ego_car" route="N2S" depart="109" departSpeed="10" departLane="best"/>
   <vehicle id="S2N_89" type="ego_car" route="S2N" depart="110" departSpeed="10" departLane="best"/>
   <vehicle id="N2S_90" type="ego_car" route="N2S" depart="110" departSpeed="10" departLane="best"/>
   <vehicle id="S2N_91" type="ego_car" route="S2N" depart="112" departSpeed="10" departLane="best"/>
   <vehicle id="W2E_92" type="ego_car" route="W2E" depart="114" departSpeed="10" departLane="best"/>
   <vehicle id="W2E_93" type="ego_car" route="W2E" depart="116" departSpeed="10" departLane="best"/>
   <vehicle id="S2N_94" type="ego_car" route="S2N" depart="118" departSpeed="10" departLane="best"/>
   <vehicle id="E2W_95" type="ego_car" route="E2W" depart="120" departSpeed="10" departLane="best"/>
   <vehicle id="W2E_96" type="ego_car" route="W2E" depart="120" departSpeed="10" departLane="best"/>
   <vehicle id="S2N_97" type="ego_car" route="S2N" depart="123" departSpeed="10" departLane="best"/>
   <vehicle id="S2N_98" type="ego_car" route="S2N" depart="127" departSpeed="10" departLane="best"/>
   <vehicle id="N2S_99" type="ego_car" route="N2S" depart="127" departSpeed="10" departLane="best"/>
   <vehicle id="S2N_100" type="ego_car" route="S2N" depart="128" departSpeed="10" departLane="best"/>
   <vehicle id="E2W_101" type="ego_car" route="E2W" depart="128" departSpeed="10" departLane="best"/>
   <vehicle id="W2E_102" type="ego_car" route="W2E" depart="129" departSpeed="10" departLane="best"/>
   <vehicle id="N2S_103" type="ego_car" route="N2S" depart="130" departSpeed="10" departLane="best"/>
   <vehicle id="E2W_104" type="ego_car" route="E2W" depart="134" departSpeed="10" departLane="best"/>
   <vehicle id="S2N_105" type="ego_car" route="S2N" depart="138" departSpeed="10" departLane="best"/>
   <vehicle id="W2E_106" type="ego_car" route="W2E" depart="138" departSpeed="10" departLane="best"/>
   <vehicle id="E2W_107" type="ego_car" route="E2W" depart="147" departSpeed="10" departLane="best"/>
   <vehicle id="S2N_108" type="ego_car" route="S2N" depart="151" departSpeed="10" departLane="best"/>
   <vehicle id="N2S_109" type="ego_car" route="N2S" depart="151" departSpeed="10" departLane="best"/>
   <vehicle id="E2W_110" type="ego_car" route="E2W" depart="151" departSpeed="10" departLane="best"/>
   <vehicle id="W2E_111" type="ego_car" route="W2E" depart="153" departSpeed="10" departLane="best"/>
   <vehicle id="W2E_112" type="ego_car" route="W2E" depart="166" departSpeed="10" departLane="best"/>
   <vehicle id="S2N_113" type="ego_car" route="S2N" depart="167" departSpeed="10" departLane="best"/>
   <vehicle id="N2S_114" type="ego_car" route="N2S" depart="172" departSpeed="10" departLane="best"/>
   <vehicle id="W2E_115" type="ego_car" route="W2E" depart="173" departSpeed="10" departLane="best"/>
   <vehicle id="E2W_116" type="ego_car" route="E2W" depart="174" departSpeed="10" departLane="best"/>
   <vehicle id="S2N_117" type="ego_car" route="S2N" depart="175" departSpeed="10" departLane="best"/>
   <vehicle id="N2S_118" type="ego_car" route="N2S" depart="181" departSpeed="10" departLane="best"/>
   <vehicle id="S2N_119" type="ego_car" route="S2N" depart="197" departSpeed="10" departLane="best"/>
   <vehicle id="E2W_120" type="ego_car" route="E2W" depart="198" departSpeed="10" departLane="best"/>
</routes>
