<routes>

        <vType id = 'ego_car' vclass="evehicle" emissionClass="Energy" tau="1.5" accel="3.0" decel="3.0" color="#00FFFF" sigma="0.2" length="4.90" minGap="1.0" maxSpeed="20" carFollowing="IDM" guiShape="passenger"/>

        <route id="N2S" edges="NS -SN"/>
        <route id="S2N" edges="SN -NS"/>
        <route id="W2E" edges="WE -EW"/>
        <route id="E2W" edges="EW -WE"/>
   <vehicle id="S2N_1" type="ego_car" route="S2N" depart="70" departSpeed="10" departLane="best"/>
   <vehicle id="E2W_2" type="ego_car" route="E2W" depart="120" departSpeed="10" departLane="best"/>
   <vehicle id="W2E_3" type="ego_car" route="W2E" depart="143" departSpeed="10" departLane="best"/>
   <vehicle id="W2E_4" type="ego_car" route="W2E" depart="145" departSpeed="10" departLane="best"/>
   <vehicle id="W2E_5" type="ego_car" route="W2E" depart="163" departSpeed="10" departLane="best"/>
   <vehicle id="S2N_6" type="ego_car" route="S2N" depart="164" departSpeed="10" departLane="best"/>
   <vehicle id="E2W_7" type="ego_car" route="E2W" depart="169" departSpeed="10" departLane="best"/>
   <vehicle id="N2S_8" type="ego_car" route="N2S" depart="177" departSpeed="10" departLane="best"/>
   <vehicle id="N2S_9" type="ego_car" route="N2S" depart="200" departSpeed="10" departLane="best"/>
   <vehicle id="S2N_10" type="ego_car" route="S2N" depart="228" departSpeed="10" departLane="best"/>
   <vehicle id="S2N_11" type="ego_car" route="S2N" depart="232" departSpeed="10" departLane="best"/>
   <vehicle id="S2N_12" type="ego_car" route="S2N" depart="268" departSpeed="10" departLane="best"/>
   <vehicle id="E2W_13" type="ego_car" route="E2W" depart="278" departSpeed="10" departLane="best"/>
   <vehicle id="N2S_14" type="ego_car" route="N2S" depart="286" departSpeed="10" departLane="best"/>
   <vehicle id="W2E_15" type="ego_car" route="W2E" depart="297" departSpeed="10" departLane="best"/>
   <vehicle id="N2S_16" type="ego_car" route="N2S" depart="318" departSpeed="10" departLane="best"/>
   <vehicle id="N2S_17" type="ego_car" route="N2S" depart="323" departSpeed="10" departLane="best"/>
   <vehicle id="E2W_18" type="ego_car" route="E2W" depart="324" departSpeed="10" departLane="best"/>
   <vehicle id="E2W_19" type="ego_car" route="E2W" depart="348" departSpeed="10" departLane="best"/>
   <vehicle id="W2E_20" type="ego_car" route="W2E" depart="349" departSpeed="10" departLane="best"/>
   <vehicle id="S2N_21" type="ego_car" route="S2N" depart="354" departSpeed="10" departLane="best"/>
   <vehicle id="W2E_22" type="ego_car" route="W2E" depart="359" departSpeed="10" departLane="best"/>
   <vehicle id="S2N_23" type="ego_car" route="S2N" depart="368" departSpeed="10" departLane="best"/>
   <vehicle id="S2N_24" type="ego_car" route="S2N" depart="383" departSpeed="10" departLane="best"/>
   <vehicle id="N2S_25" type="ego_car" route="N2S" depart="394" departSpeed="10" departLane="best"/>
   <vehicle id="E2W_26" type="ego_car" route="E2W" depart="397" departSpeed="10" departLane="best"/>
   <vehicle id="S2N_27" type="ego_car" route="S2N" depart="407" departSpeed="10" departLane="best"/>
   <vehicle id="W2E_28" type="ego_car" route="W2E" depart="409" departSpeed="10" departLane="best"/>
   <vehicle id="W2E_29" type="ego_car" route="W2E" depart="411" departSpeed="10" departLane="best"/>
   <vehicle id="E2W_30" type="ego_car" route="E2W" depart="416" departSpeed="10" departLane="best"/>
   <vehicle id="W2E_31" type="ego_car" route="W2E" depart="416" departSpeed="10" departLane="best"/>
   <vehicle id="S2N_32" type="ego_car" route="S2N" depart="418" departSpeed="10" departLane="best"/>
   <vehicle id="E2W_33" type="ego_car" route="E2W" depart="423" departSpeed="10" departLane="best"/>
   <vehicle id="N2S_34" type="ego_car" route="N2S" depart="425" departSpeed="10" departLane="best"/>
   <vehicle id="S2N_35" type="ego_car" route="S2N" depart="434" departSpeed="10" departLane="best"/>
   <vehicle id="W2E_36" type="ego_car" route="W2E" depart="437" departSpeed="10" departLane="best"/>
   <vehicle id="N2S_37" type="ego_car" route="N2S" depart="440" departSpeed="10" departLane="best"/>
   <vehicle id="W2E_38" type="ego_car" route="W2E" depart="452" departSpeed="10" departLane="best"/>
   <vehicle id="N2S_39" type="ego_car" route="N2S" depart="454" departSpeed="10" departLane="best"/>
   <vehicle id="S2N_40" type="ego_car" route="S2N" depart="459" departSpeed="10" departLane="best"/>
   <vehicle id="E2W_41" type="ego_car" route="E2W" depart="464" departSpeed="10" departLane="best"/>
   <vehicle id="E2W_42" type="ego_car" route="E2W" depart="465" departSpeed="10" departLane="best"/>
   <vehicle id="W2E_43" type="ego_car" route="W2E" depart="481" departSpeed="10" departLane="best"/>
   <vehicle id="S2N_44" type="ego_car" route="S2N" depart="481" departSpeed="10" departLane="best"/>
   <vehicle id="S2N_45" type="ego_car" route="S2N" depart="483" departSpeed="10" departLane="best"/>
   <vehicle id="W2E_46" type="ego_car" route="W2E" depart="485" departSpeed="10" departLane="best"/>
   <vehicle id="S2N_47" type="ego_car" route="S2N" depart="486" departSpeed="10" departLane="best"/>
   <vehicle id="S2N_48" type="ego_car" route="S2N" depart="495" departSpeed="10" departLane="best"/>
   <vehicle id="S2N_49" type="ego_car" route="S2N" depart="500" departSpeed="10" departLane="best"/>
   <vehicle id="E2W_50" type="ego_car" route="E2W" depart="509" departSpeed="10" departLane="best"/>
   <vehicle id="E2W_51" type="ego_car" route="E2W" depart="518" departSpeed="10" departLane="best"/>
   <vehicle id="E2W_52" type="ego_car" route="E2W" depart="528" departSpeed="10" departLane="best"/>
   <vehicle id="S2N_53" type="ego_car" route="S2N" depart="535" departSpeed="10" departLane="best"/>
   <vehicle id="W2E_54" type="ego_car" route="W2E" depart="544" departSpeed="10" departLane="best"/>
   <vehicle id="E2W_55" type="ego_car" route="E2W" depart="551" departSpeed="10" departLane="best"/>
   <vehicle id="W2E_56" type="ego_car" route="W2E" depart="551" departSpeed="10" departLane="best"/>
   <vehicle id="E2W_57" type="ego_car" route="E2W" depart="557" departSpeed="10" departLane="best"/>
   <vehicle id="N2S_58" type="ego_car" route="N2S" depart="563" departSpeed="10" departLane="best"/>
   <vehicle id="S2N_59" type="ego_car" route="S2N" depart="570" departSpeed="10" departLane="best"/>
   <vehicle id="N2S_60" type="ego_car" route="N2S" depart="571" departSpeed="10" departLane="best"/>
   <vehicle id="N2S_61" type="ego_car" route="N2S" depart="572" departSpeed="10" departLane="best"/>
   <vehicle id="W2E_62" type="ego_car" route="W2E" depart="588" departSpeed="10" departLane="best"/>
   <vehicle id="N2S_63" type="ego_car" route="N2S" depart="590" departSpeed="10" departLane="best"/>
   <vehicle id="W2E_64" type="ego_car" route="W2E" depart="597" departSpeed="10" departLane="best"/>
   <vehicle id="S2N_65" type="ego_car" route="S2N" depart="604" departSpeed="10" departLane="best"/>
   <vehicle id="W2E_66" type="ego_car" route="W2E" depart="605" departSpeed="10" departLane="best"/>
   <vehicle id="S2N_67" type="ego_car" route="S2N" depart="609" departSpeed="10" departLane="best"/>
   <vehicle id="N2S_68" type="ego_car" route="N2S" depart="610" departSpeed="10" departLane="best"/>
   <vehicle id="S2N_69" type="ego_car" route="S2N" depart="627" departSpeed="10" departLane="best"/>
   <vehicle id="S2N_70" type="ego_car" route="S2N" depart="632" departSpeed="10" departLane="best"/>
   <vehicle id="S2N_71" type="ego_car" route="S2N" depart="643" departSpeed="10" departLane="best"/>
   <vehicle id="N2S_72" type="ego_car" route="N2S" depart="658" departSpeed="10" departLane="best"/>
   <vehicle id="N2S_73" type="ego_car" route="N2S" depart="661" departSpeed="10" departLane="best"/>
   <vehicle id="S2N_74" type="ego_car" route="S2N" depart="663" departSpeed="10" departLane="best"/>
   <vehicle id="W2E_75" type="ego_car" route="W2E" depart="679" departSpeed="10" departLane="best"/>
   <vehicle id="W2E_76" type="ego_car" route="W2E" depart="680" departSpeed="10" departLane="best"/>
   <vehicle id="S2N_77" type="ego_car" route="S2N" depart="685" departSpeed="10" departLane="best"/>
   <vehicle id="N2S_78" type="ego_car" route="N2S" depart="691" departSpeed="10" departLane="best"/>
   <vehicle id="S2N_79" type="ego_car" route="S2N" depart="692" departSpeed="10" departLane="best"/>
   <vehicle id="S2N_80" type="ego_car" route="S2N" depart="696" departSpeed="10" departLane="best"/>
   <vehicle id="E2W_81" type="ego_car" route="E2W" depart="700" departSpeed="10" departLane="best"/>
   <vehicle id="W2E_82" type="ego_car" route="W2E" depart="701" departSpeed="10" departLane="best"/>
   <vehicle id="W2E_83" type="ego_car" route="W2E" depart="710" departSpeed="10" departLane="best"/>
   <vehicle id="E2W_84" type="ego_car" route="E2W" depart="711" departSpeed="10" departLane="best"/>
   <vehicle id="E2W_85" type="ego_car" route="E2W" depart="718" departSpeed="10" departLane="best"/>
   <vehicle id="W2E_86" type="ego_car" route="W2E" depart="728" departSpeed="10" departLane="best"/>
   <vehicle id="W2E_87" type="ego_car" route="W2E" depart="730" departSpeed="10" departLane="best"/>
   <vehicle id="N2S_88" type="ego_car" route="N2S" depart="731" departSpeed="10" departLane="best"/>
   <vehicle id="E2W_89" type="ego_car" route="E2W" depart="737" departSpeed="10" departLane="best"/>
   <vehicle id="W2E_90" type="ego_car" route="W2E" depart="741" departSpeed="10" departLane="best"/>
   <vehicle id="W2E_91" type="ego_car" route="W2E" depart="746" departSpeed="10" departLane="best"/>
   <vehicle id="W2E_92" type="ego_car" route="W2E" depart="751" departSpeed="10" departLane="best"/>
   <vehicle id="W2E_93" type="ego_car" route="W2E" depart="752" departSpeed="10" departLane="best"/>
   <vehicle id="E2W_94" type="ego_car" route="E2W" depart="761" departSpeed="10" departLane="best"/>
   <vehicle id="N2S_95" type="ego_car" route="N2S" depart="766" departSpeed="10" departLane="best"/>
   <vehicle id="N2S_96" type="ego_car" route="N2S" depart="768" departSpeed="10" departLane="best"/>
   <vehicle id="W2E_97" type="ego_car" route="W2E" depart="773" departSpeed="10" departLane="best"/>
   <vehicle id="N2S_98" type="ego_car" route="N2S" depart="785" departSpeed="10" departLane="best"/>
   <vehicle id="S2N_99" type="ego_car" route="S2N" depart="785" departSpeed="10" departLane="best"/>
   <vehicle id="E2W_100" type="ego_car" route="E2W" depart="790" departSpeed="10" departLane="best"/>
   <vehicle id="N2S_101" type="ego_car" route="N2S" depart="793" departSpeed="10" departLane="best"/>
   <vehicle id="E2W_102" type="ego_car" route="E2W" depart="793" departSpeed="10" departLane="best"/>
   <vehicle id="W2E_103" type="ego_car" route="W2E" depart="793" departSpeed="10" departLane="best"/>
   <vehicle id="S2N_104" type="ego_car" route="S2N" depart="795" departSpeed="10" departLane="best"/>
   <vehicle id="E2W_105" type="ego_car" route="E2W" depart="796" departSpeed="10" departLane="best"/>
   <vehicle id="N2S_106" type="ego_car" route="N2S" depart="809" departSpeed="10" departLane="best"/>
   <vehicle id="N2S_107" type="ego_car" route="N2S" depart="810" departSpeed="10" departLane="best"/>
   <vehicle id="N2S_108" type="ego_car" route="N2S" depart="813" departSpeed="10" departLane="best"/>
   <vehicle id="W2E_109" type="ego_car" route="W2E" depart="813" departSpeed="10" departLane="best"/>
   <vehicle id="N2S_110" type="ego_car" route="N2S" depart="815" departSpeed="10" departLane="best"/>
   <vehicle id="E2W_111" type="ego_car" route="E2W" depart="833" departSpeed="10" departLane="best"/>
   <vehicle id="W2E_112" type="ego_car" route="W2E" depart="834" departSpeed="10" departLane="best"/>
   <vehicle id="E2W_113" type="ego_car" route="E2W" depart="838" departSpeed="10" departLane="best"/>
   <vehicle id="S2N_114" type="ego_car" route="S2N" depart="838" departSpeed="10" departLane="best"/>
   <vehicle id="N2S_115" type="ego_car" route="N2S" depart="842" departSpeed="10" departLane="best"/>
   <vehicle id="E2W_116" type="ego_car" route="E2W" depart="847" departSpeed="10" departLane="best"/>
   <vehicle id="S2N_117" type="ego_car" route="S2N" depart="847" departSpeed="10" departLane="best"/>
   <vehicle id="E2W_118" type="ego_car" route="E2W" depart="852" departSpeed="10" departLane="best"/>
   <vehicle id="S2N_119" type="ego_car" route="S2N" depart="852" departSpeed="10" departLane="best"/>
   <vehicle id="W2E_120" type="ego_car" route="W2E" depart="857" departSpeed="10" departLane="best"/>
   <vehicle id="S2N_121" type="ego_car" route="S2N" depart="861" departSpeed="10" departLane="best"/>
   <vehicle id="W2E_122" type="ego_car" route="W2E" depart="863" departSpeed="10" departLane="best"/>
   <vehicle id="E2W_123" type="ego_car" route="E2W" depart="866" departSpeed="10" departLane="best"/>
   <vehicle id="W2E_124" type="ego_car" route="W2E" depart="867" departSpeed="10" departLane="best"/>
   <vehicle id="E2W_125" type="ego_car" route="E2W" depart="868" departSpeed="10" departLane="best"/>
   <vehicle id="S2N_126" type="ego_car" route="S2N" depart="872" departSpeed="10" departLane="best"/>
   <vehicle id="S2N_127" type="ego_car" route="S2N" depart="880" departSpeed="10" departLane="best"/>
   <vehicle id="S2N_128" type="ego_car" route="S2N" depart="887" departSpeed="10" departLane="best"/>
   <vehicle id="S2N_129" type="ego_car" route="S2N" depart="887" departSpeed="10" departLane="best"/>
   <vehicle id="W2E_130" type="ego_car" route="W2E" depart="890" departSpeed="10" departLane="best"/>
   <vehicle id="E2W_131" type="ego_car" route="E2W" depart="896" departSpeed="10" departLane="best"/>
   <vehicle id="W2E_132" type="ego_car" route="W2E" depart="896" departSpeed="10" departLane="best"/>
   <vehicle id="S2N_133" type="ego_car" route="S2N" depart="896" departSpeed="10" departLane="best"/>
   <vehicle id="E2W_134" type="ego_car" route="E2W" depart="897" departSpeed="10" departLane="best"/>
   <vehicle id="W2E_135" type="ego_car" route="W2E" depart="897" departSpeed="10" departLane="best"/>
   <vehicle id="W2E_136" type="ego_car" route="W2E" depart="905" departSpeed="10" departLane="best"/>
   <vehicle id="S2N_137" type="ego_car" route="S2N" depart="906" departSpeed="10" departLane="best"/>
   <vehicle id="W2E_138" type="ego_car" route="W2E" depart="921" departSpeed="10" departLane="best"/>
   <vehicle id="W2E_139" type="ego_car" route="W2E" depart="924" departSpeed="10" departLane="best"/>
   <vehicle id="E2W_140" type="ego_car" route="E2W" depart="926" departSpeed="10" departLane="best"/>
   <vehicle id="E2W_141" type="ego_car" route="E2W" depart="937" departSpeed="10" departLane="best"/>
   <vehicle id="W2E_142" type="ego_car" route="W2E" depart="940" departSpeed="10" departLane="best"/>
   <vehicle id="N2S_143" type="ego_car" route="N2S" depart="944" departSpeed="10" departLane="best"/>
   <vehicle id="W2E_144" type="ego_car" route="W2E" depart="944" departSpeed="10" departLane="best"/>
   <vehicle id="S2N_145" type="ego_car" route="S2N" depart="949" departSpeed="10" departLane="best"/>
   <vehicle id="S2N_146" type="ego_car" route="S2N" depart="950" departSpeed="10" departLane="best"/>
   <vehicle id="W2E_147" type="ego_car" route="W2E" depart="950" departSpeed="10" departLane="best"/>
   <vehicle id="S2N_148" type="ego_car" route="S2N" depart="951" departSpeed="10" departLane="best"/>
   <vehicle id="S2N_149" type="ego_car" route="S2N" depart="952" departSpeed="10" departLane="best"/>
   <vehicle id="N2S_150" type="ego_car" route="N2S" depart="959" departSpeed="10" departLane="best"/>
   <vehicle id="N2S_151" type="ego_car" route="N2S" depart="961" departSpeed="10" departLane="best"/>
   <vehicle id="E2W_152" type="ego_car" route="E2W" depart="963" departSpeed="10" departLane="best"/>
   <vehicle id="S2N_153" type="ego_car" route="S2N" depart="966" departSpeed="10" departLane="best"/>
   <vehicle id="N2S_154" type="ego_car" route="N2S" depart="972" departSpeed="10" departLane="best"/>
   <vehicle id="E2W_155" type="ego_car" route="E2W" depart="975" departSpeed="10" departLane="best"/>
   <vehicle id="W2E_156" type="ego_car" route="W2E" depart="975" departSpeed="10" departLane="best"/>
   <vehicle id="S2N_157" type="ego_car" route="S2N" depart="975" departSpeed="10" departLane="best"/>
   <vehicle id="S2N_158" type="ego_car" route="S2N" depart="982" departSpeed="10" departLane="best"/>
   <vehicle id="N2S_159" type="ego_car" route="N2S" depart="988" departSpeed="10" departLane="best"/>
   <vehicle id="E2W_160" type="ego_car" route="E2W" depart="989" departSpeed="10" departLane="best"/>
   <vehicle id="E2W_161" type="ego_car" route="E2W" depart="989" departSpeed="10" departLane="best"/>
   <vehicle id="E2W_162" type="ego_car" route="E2W" depart="992" departSpeed="10" departLane="best"/>
   <vehicle id="E2W_163" type="ego_car" route="E2W" depart="993" departSpeed="10" departLane="best"/>
   <vehicle id="E2W_164" type="ego_car" route="E2W" depart="999" departSpeed="10" departLane="best"/>
   <vehicle id="S2N_165" type="ego_car" route="S2N" depart="1003" departSpeed="10" departLane="best"/>
   <vehicle id="E2W_166" type="ego_car" route="E2W" depart="1004" departSpeed="10" departLane="best"/>
   <vehicle id="E2W_167" type="ego_car" route="E2W" depart="1005" departSpeed="10" departLane="best"/>
   <vehicle id="E2W_168" type="ego_car" route="E2W" depart="1007" departSpeed="10" departLane="best"/>
   <vehicle id="W2E_169" type="ego_car" route="W2E" depart="1012" departSpeed="10" departLane="best"/>
   <vehicle id="W2E_170" type="ego_car" route="W2E" depart="1027" departSpeed="10" departLane="best"/>
   <vehicle id="N2S_171" type="ego_car" route="N2S" depart="1042" departSpeed="10" departLane="best"/>
   <vehicle id="W2E_172" type="ego_car" route="W2E" depart="1044" departSpeed="10" departLane="best"/>
   <vehicle id="N2S_173" type="ego_car" route="N2S" depart="1046" departSpeed="10" departLane="best"/>
   <vehicle id="E2W_174" type="ego_car" route="E2W" depart="1047" departSpeed="10" departLane="best"/>
   <vehicle id="N2S_175" type="ego_car" route="N2S" depart="1048" departSpeed="10" departLane="best"/>
   <vehicle id="S2N_176" type="ego_car" route="S2N" depart="1050" departSpeed="10" departLane="best"/>
   <vehicle id="W2E_177" type="ego_car" route="W2E" depart="1050" departSpeed="10" departLane="best"/>
   <vehicle id="W2E_178" type="ego_car" route="W2E" depart="1050" departSpeed="10" departLane="best"/>
   <vehicle id="S2N_179" type="ego_car" route="S2N" depart="1052" departSpeed="10" departLane="best"/>
   <vehicle id="N2S_180" type="ego_car" route="N2S" depart="1053" departSpeed="10" departLane="best"/>
   <vehicle id="N2S_181" type="ego_car" route="N2S" depart="1056" departSpeed="10" departLane="best"/>
   <vehicle id="N2S_182" type="ego_car" route="N2S" depart="1058" departSpeed="10" departLane="best"/>
   <vehicle id="W2E_183" type="ego_car" route="W2E" depart="1064" departSpeed="10" departLane="best"/>
   <vehicle id="E2W_184" type="ego_car" route="E2W" depart="1067" departSpeed="10" departLane="best"/>
   <vehicle id="E2W_185" type="ego_car" route="E2W" depart="1067" departSpeed="10" departLane="best"/>
   <vehicle id="E2W_186" type="ego_car" route="E2W" depart="1068" departSpeed="10" departLane="best"/>
   <vehicle id="E2W_187" type="ego_car" route="E2W" depart="1073" departSpeed="10" departLane="best"/>
   <vehicle id="E2W_188" type="ego_car" route="E2W" depart="1078" departSpeed="10" departLane="best"/>
   <vehicle id="S2N_189" type="ego_car" route="S2N" depart="1078" departSpeed="10" departLane="best"/>
   <vehicle id="W2E_190" type="ego_car" route="W2E" depart="1078" departSpeed="10" departLane="best"/>
   <vehicle id="W2E_191" type="ego_car" route="W2E" depart="1082" departSpeed="10" departLane="best"/>
   <vehicle id="W2E_192" type="ego_car" route="W2E" depart="1083" departSpeed="10" departLane="best"/>
   <vehicle id="N2S_193" type="ego_car" route="N2S" depart="1094" departSpeed="10" departLane="best"/>
   <vehicle id="N2S_194" type="ego_car" route="N2S" depart="1105" departSpeed="10" departLane="best"/>
   <vehicle id="W2E_195" type="ego_car" route="W2E" depart="1106" departSpeed="10" departLane="best"/>
   <vehicle id="E2W_196" type="ego_car" route="E2W" depart="1108" departSpeed="10" departLane="best"/>
   <vehicle id="E2W_197" type="ego_car" route="E2W" depart="1112" departSpeed="10" departLane="best"/>
   <vehicle id="W2E_198" type="ego_car" route="W2E" depart="1117" departSpeed="10" departLane="best"/>
   <vehicle id="N2S_199" type="ego_car" route="N2S" depart="1118" departSpeed="10" departLane="best"/>
   <vehicle id="W2E_200" type="ego_car" route="W2E" depart="1120" departSpeed="10" departLane="best"/>
   <vehicle id="E2W_201" type="ego_car" route="E2W" depart="1126" departSpeed="10" departLane="best"/>
   <vehicle id="S2N_202" type="ego_car" route="S2N" depart="1130" departSpeed="10" departLane="best"/>
   <vehicle id="E2W_203" type="ego_car" route="E2W" depart="1131" departSpeed="10" departLane="best"/>
   <vehicle id="W2E_204" type="ego_car" route="W2E" depart="1132" departSpeed="10" departLane="best"/>
   <vehicle id="N2S_205" type="ego_car" route="N2S" depart="1135" departSpeed="10" departLane="best"/>
   <vehicle id="S2N_206" type="ego_car" route="S2N" depart="1135" departSpeed="10" departLane="best"/>
   <vehicle id="E2W_207" type="ego_car" route="E2W" depart="1142" departSpeed="10" departLane="best"/>
   <vehicle id="S2N_208" type="ego_car" route="S2N" depart="1145" departSpeed="10" departLane="best"/>
   <vehicle id="E2W_209" type="ego_car" route="E2W" depart="1148" departSpeed="10" departLane="best"/>
   <vehicle id="E2W_210" type="ego_car" route="E2W" depart="1155" departSpeed="10" departLane="best"/>
   <vehicle id="N2S_211" type="ego_car" route="N2S" depart="1157" departSpeed="10" departLane="best"/>
   <vehicle id="E2W_212" type="ego_car" route="E2W" depart="1160" departSpeed="10" departLane="best"/>
   <vehicle id="W2E_213" type="ego_car" route="W2E" depart="1164" departSpeed="10" departLane="best"/>
   <vehicle id="E2W_214" type="ego_car" route="E2W" depart="1166" departSpeed="10" departLane="best"/>
   <vehicle id="S2N_215" type="ego_car" route="S2N" depart="1174" departSpeed="10" departLane="best"/>
   <vehicle id="S2N_216" type="ego_car" route="S2N" depart="1177" departSpeed="10" departLane="best"/>
   <vehicle id="W2E_217" type="ego_car" route="W2E" depart="1178" departSpeed="10" departLane="best"/>
   <vehicle id="S2N_218" type="ego_car" route="S2N" depart="1180" departSpeed="10" departLane="best"/>
   <vehicle id="E2W_219" type="ego_car" route="E2W" depart="1196" departSpeed="10" departLane="best"/>
   <vehicle id="N2S_220" type="ego_car" route="N2S" depart="1202" departSpeed="10" departLane="best"/>
   <vehicle id="E2W_221" type="ego_car" route="E2W" depart="1206" departSpeed="10" departLane="best"/>
   <vehicle id="N2S_222" type="ego_car" route="N2S" depart="1207" departSpeed="10" departLane="best"/>
   <vehicle id="E2W_223" type="ego_car" route="E2W" depart="1207" departSpeed="10" departLane="best"/>
   <vehicle id="W2E_224" type="ego_car" route="W2E" depart="1208" departSpeed="10" departLane="best"/>
   <vehicle id="E2W_225" type="ego_car" route="E2W" depart="1210" departSpeed="10" departLane="best"/>
   <vehicle id="S2N_226" type="ego_car" route="S2N" depart="1215" departSpeed="10" departLane="best"/>
   <vehicle id="W2E_227" type="ego_car" route="W2E" depart="1220" departSpeed="10" departLane="best"/>
   <vehicle id="W2E_228" type="ego_car" route="W2E" depart="1224" departSpeed="10" departLane="best"/>
   <vehicle id="E2W_229" type="ego_car" route="E2W" depart="1230" departSpeed="10" departLane="best"/>
   <vehicle id="N2S_230" type="ego_car" route="N2S" depart="1232" departSpeed="10" departLane="best"/>
   <vehicle id="S2N_231" type="ego_car" route="S2N" depart="1233" departSpeed="10" departLane="best"/>
   <vehicle id="S2N_232" type="ego_car" route="S2N" depart="1240" departSpeed="10" departLane="best"/>
   <vehicle id="W2E_233" type="ego_car" route="W2E" depart="1256" departSpeed="10" departLane="best"/>
   <vehicle id="E2W_234" type="ego_car" route="E2W" depart="1261" departSpeed="10" departLane="best"/>
   <vehicle id="W2E_235" type="ego_car" route="W2E" depart="1262" departSpeed="10" departLane="best"/>
   <vehicle id="S2N_236" type="ego_car" route="S2N" depart="1273" departSpeed="10" departLane="best"/>
   <vehicle id="W2E_237" type="ego_car" route="W2E" depart="1276" departSpeed="10" departLane="best"/>
   <vehicle id="N2S_238" type="ego_car" route="N2S" depart="1280" departSpeed="10" departLane="best"/>
   <vehicle id="W2E_239" type="ego_car" route="W2E" depart="1284" departSpeed="10" departLane="best"/>
   <vehicle id="N2S_240" type="ego_car" route="N2S" depart="1290" departSpeed="10" departLane="best"/>
   <vehicle id="N2S_241" type="ego_car" route="N2S" depart="1298" departSpeed="10" departLane="best"/>
   <vehicle id="N2S_242" type="ego_car" route="N2S" depart="1299" departSpeed="10" departLane="best"/>
   <vehicle id="S2N_243" type="ego_car" route="S2N" depart="1309" departSpeed="10" departLane="best"/>
   <vehicle id="S2N_244" type="ego_car" route="S2N" depart="1316" departSpeed="10" departLane="best"/>
   <vehicle id="W2E_245" type="ego_car" route="W2E" depart="1325" departSpeed="10" departLane="best"/>
   <vehicle id="N2S_246" type="ego_car" route="N2S" depart="1328" departSpeed="10" departLane="best"/>
   <vehicle id="S2N_247" type="ego_car" route="S2N" depart="1328" departSpeed="10" departLane="best"/>
   <vehicle id="N2S_248" type="ego_car" route="N2S" depart="1333" departSpeed="10" departLane="best"/>
   <vehicle id="W2E_249" type="ego_car" route="W2E" depart="1336" departSpeed="10" departLane="best"/>
   <vehicle id="S2N_250" type="ego_car" route="S2N" depart="1337" departSpeed="10" departLane="best"/>
   <vehicle id="S2N_251" type="ego_car" route="S2N" depart="1342" departSpeed="10" departLane="best"/>
   <vehicle id="E2W_252" type="ego_car" route="E2W" depart="1343" departSpeed="10" departLane="best"/>
   <vehicle id="W2E_253" type="ego_car" route="W2E" depart="1345" departSpeed="10" departLane="best"/>
   <vehicle id="E2W_254" type="ego_car" route="E2W" depart="1353" departSpeed="10" departLane="best"/>
   <vehicle id="W2E_255" type="ego_car" route="W2E" depart="1353" departSpeed="10" departLane="best"/>
   <vehicle id="W2E_256" type="ego_car" route="W2E" depart="1359" departSpeed="10" departLane="best"/>
   <vehicle id="N2S_257" type="ego_car" route="N2S" depart="1369" departSpeed="10" departLane="best"/>
   <vehicle id="S2N_258" type="ego_car" route="S2N" depart="1370" departSpeed="10" departLane="best"/>
   <vehicle id="E2W_259" type="ego_car" route="E2W" depart="1377" departSpeed="10" departLane="best"/>
   <vehicle id="W2E_260" type="ego_car" route="W2E" depart="1389" departSpeed="10" departLane="best"/>
   <vehicle id="S2N_261" type="ego_car" route="S2N" depart="1391" departSpeed="10" departLane="best"/>
   <vehicle id="W2E_262" type="ego_car" route="W2E" depart="1395" departSpeed="10" departLane="best"/>
   <vehicle id="E2W_263" type="ego_car" route="E2W" depart="1401" departSpeed="10" departLane="best"/>
   <vehicle id="E2W_264" type="ego_car" route="E2W" depart="1405" departSpeed="10" departLane="best"/>
   <vehicle id="S2N_265" type="ego_car" route="S2N" depart="1414" departSpeed="10" departLane="best"/>
   <vehicle id="W2E_266" type="ego_car" route="W2E" depart="1415" departSpeed="10" departLane="best"/>
   <vehicle id="E2W_267" type="ego_car" route="E2W" depart="1418" departSpeed="10" departLane="best"/>
   <vehicle id="W2E_268" type="ego_car" route="W2E" depart="1421" departSpeed="10" departLane="best"/>
   <vehicle id="N2S_269" type="ego_car" route="N2S" depart="1425" departSpeed="10" departLane="best"/>
   <vehicle id="S2N_270" type="ego_car" route="S2N" depart="1432" departSpeed="10" departLane="best"/>
   <vehicle id="E2W_271" type="ego_car" route="E2W" depart="1439" departSpeed="10" departLane="best"/>
   <vehicle id="N2S_272" type="ego_car" route="N2S" depart="1440" departSpeed="10" departLane="best"/>
   <vehicle id="N2S_273" type="ego_car" route="N2S" depart="1443" departSpeed="10" departLane="best"/>
   <vehicle id="E2W_274" type="ego_car" route="E2W" depart="1446" departSpeed="10" departLane="best"/>
   <vehicle id="E2W_275" type="ego_car" route="E2W" depart="1449" departSpeed="10" departLane="best"/>
   <vehicle id="N2S_276" type="ego_car" route="N2S" depart="1455" departSpeed="10" departLane="best"/>
   <vehicle id="W2E_277" type="ego_car" route="W2E" depart="1456" departSpeed="10" departLane="best"/>
   <vehicle id="S2N_278" type="ego_car" route="S2N" depart="1457" departSpeed="10" departLane="best"/>
   <vehicle id="E2W_279" type="ego_car" route="E2W" depart="1460" departSpeed="10" departLane="best"/>
   <vehicle id="W2E_280" type="ego_car" route="W2E" depart="1461" departSpeed="10" departLane="best"/>
   <vehicle id="N2S_281" type="ego_car" route="N2S" depart="1465" departSpeed="10" departLane="best"/>
   <vehicle id="N2S_282" type="ego_car" route="N2S" depart="1469" departSpeed="10" departLane="best"/>
   <vehicle id="S2N_283" type="ego_car" route="S2N" depart="1489" departSpeed="10" departLane="best"/>
   <vehicle id="W2E_284" type="ego_car" route="W2E" depart="1492" departSpeed="10" departLane="best"/>
   <vehicle id="E2W_285" type="ego_car" route="E2W" depart="1503" departSpeed="10" departLane="best"/>
   <vehicle id="E2W_286" type="ego_car" route="E2W" depart="1503" departSpeed="10" departLane="best"/>
   <vehicle id="E2W_287" type="ego_car" route="E2W" depart="1504" departSpeed="10" departLane="best"/>
   <vehicle id="W2E_288" type="ego_car" route="W2E" depart="1505" departSpeed="10" departLane="best"/>
   <vehicle id="S2N_289" type="ego_car" route="S2N" depart="1509" departSpeed="10" departLane="best"/>
   <vehicle id="W2E_290" type="ego_car" route="W2E" depart="1510" departSpeed="10" departLane="best"/>