<routes>

        <vType id = 'ego_car' vclass="evehicle" emissionClass="Energy" tau="1.5" accel="3.0" decel="3.0" color="#00FFFF" sigma="0.2" length="4.90" minGap="1.0" maxSpeed="20" carFollowing="IDM" guiShape="passenger"/>

        <route id="N2S" edges="NS -SN"/>
        <route id="S2N" edges="SN -NS"/>
        <route id="W2E" edges="WE -EW"/>
        <route id="E2W" edges="EW -WE"/>
   <vehicle id="N2S_1" type="ego_car" route="N2S" depart="64" departSpeed="10" departLane="best"/>
   <vehicle id="W2E_2" type="ego_car" route="W2E" depart="73" departSpeed="10" departLane="best"/>
   <vehicle id="E2W_3" type="ego_car" route="E2W" depart="78" departSpeed="10" departLane="best"/>
   <vehicle id="W2E_4" type="ego_car" route="W2E" depart="87" departSpeed="10" departLane="best"/>
   <vehicle id="E2W_5" type="ego_car" route="E2W" depart="115" departSpeed="10" departLane="best"/>
   <vehicle id="N2S_6" type="ego_car" route="N2S" depart="128" departSpeed="10" departLane="best"/>
   <vehicle id="W2E_7" type="ego_car" route="W2E" depart="158" departSpeed="10" departLane="best"/>
   <vehicle id="W2E_8" type="ego_car" route="W2E" depart="162" departSpeed="10" departLane="best"/>
   <vehicle id="E2W_9" type="ego_car" route="E2W" depart="170" departSpeed="10" departLane="best"/>
   <vehicle id="E2W_10" type="ego_car" route="E2W" depart="181" departSpeed="10" departLane="best"/>
   <vehicle id="S2N_11" type="ego_car" route="S2N" depart="183" departSpeed="10" departLane="best"/>
   <vehicle id="S2N_12" type="ego_car" route="S2N" depart="210" departSpeed="10" departLane="best"/>
   <vehicle id="W2E_13" type="ego_car" route="W2E" depart="221" departSpeed="10" departLane="best"/>
   <vehicle id="N2S_14" type="ego_car" route="N2S" depart="223" departSpeed="10" departLane="best"/>
   <vehicle id="E2W_15" type="ego_car" route="E2W" depart="232" departSpeed="10" departLane="best"/>
   <vehicle id="E2W_16" type="ego_car" route="E2W" depart="235" departSpeed="10" departLane="best"/>
   <vehicle id="E2W_17" type="ego_car" route="E2W" depart="249" departSpeed="10" departLane="best"/>
   <vehicle id="N2S_18" type="ego_car" route="N2S" depart="259" departSpeed="10" departLane="best"/>
   <vehicle id="E2W_19" type="ego_car" route="E2W" depart="261" departSpeed="10" departLane="best"/>
   <vehicle id="E2W_20" type="ego_car" route="E2W" depart="262" departSpeed="10" departLane="best"/>
   <vehicle id="W2E_21" type="ego_car" route="W2E" depart="263" departSpeed="10" departLane="best"/>
   <vehicle id="N2S_22" type="ego_car" route="N2S" depart="268" departSpeed="10" departLane="best"/>
   <vehicle id="W2E_23" type="ego_car" route="W2E" depart="286" departSpeed="10" departLane="best"/>
   <vehicle id="S2N_24" type="ego_car" route="S2N" depart="300" departSpeed="10" departLane="best"/>
   <vehicle id="N2S_25" type="ego_car" route="N2S" depart="307" departSpeed="10" departLane="best"/>
   <vehicle id="N2S_26" type="ego_car" route="N2S" depart="311" departSpeed="10" departLane="best"/>
   <vehicle id="S2N_27" type="ego_car" route="S2N" depart="321" departSpeed="10" departLane="best"/>
   <vehicle id="S2N_28" type="ego_car" route="S2N" depart="334" departSpeed="10" departLane="best"/>
   <vehicle id="S2N_29" type="ego_car" route="S2N" depart="337" departSpeed="10" departLane="best"/>
   <vehicle id="N2S_30" type="ego_car" route="N2S" depart="339" departSpeed="10" departLane="best"/>
   <vehicle id="E2W_31" type="ego_car" route="E2W" depart="340" departSpeed="10" departLane="best"/>
   <vehicle id="W2E_32" type="ego_car" route="W2E" depart="342" departSpeed="10" departLane="best"/>
   <vehicle id="S2N_33" type="ego_car" route="S2N" depart="347" departSpeed="10" departLane="best"/>
   <vehicle id="S2N_34" type="ego_car" route="S2N" depart="352" departSpeed="10" departLane="best"/>
   <vehicle id="E2W_35" type="ego_car" route="E2W" depart="375" departSpeed="10" departLane="best"/>
   <vehicle id="W2E_36" type="ego_car" route="W2E" depart="382" departSpeed="10" departLane="best"/>
   <vehicle id="E2W_37" type="ego_car" route="E2W" depart="383" departSpeed="10" departLane="best"/>
   <vehicle id="N2S_38" type="ego_car" route="N2S" depart="385" departSpeed="10" departLane="best"/>
   <vehicle id="W2E_39" type="ego_car" route="W2E" depart="400" departSpeed="10" departLane="best"/>
   <vehicle id="S2N_40" type="ego_car" route="S2N" depart="409" departSpeed="10" departLane="best"/>
   <vehicle id="W2E_41" type="ego_car" route="W2E" depart="417" departSpeed="10" departLane="best"/>
   <vehicle id="N2S_42" type="ego_car" route="N2S" depart="420" departSpeed="10" departLane="best"/>
   <vehicle id="W2E_43" type="ego_car" route="W2E" depart="420" departSpeed="10" departLane="best"/>
   <vehicle id="N2S_44" type="ego_car" route="N2S" depart="425" departSpeed="10" departLane="best"/>
   <vehicle id="W2E_45" type="ego_car" route="W2E" depart="425" departSpeed="10" departLane="best"/>
   <vehicle id="S2N_46" type="ego_car" route="S2N" depart="427" departSpeed="10" departLane="best"/>
   <vehicle id="E2W_47" type="ego_car" route="E2W" depart="428" departSpeed="10" departLane="best"/>
   <vehicle id="S2N_48" type="ego_car" route="S2N" depart="432" departSpeed="10" departLane="best"/>
   <vehicle id="S2N_49" type="ego_car" route="S2N" depart="445" departSpeed="10" departLane="best"/>
   <vehicle id="S2N_50" type="ego_car" route="S2N" depart="453" departSpeed="10" departLane="best"/>
   <vehicle id="E2W_51" type="ego_car" route="E2W" depart="463" departSpeed="10" departLane="best"/>
   <vehicle id="N2S_52" type="ego_car" route="N2S" depart="464" departSpeed="10" departLane="best"/>
   <vehicle id="S2N_53" type="ego_car" route="S2N" depart="465" departSpeed="10" departLane="best"/>
   <vehicle id="N2S_54" type="ego_car" route="N2S" depart="470" departSpeed="10" departLane="best"/>
   <vehicle id="N2S_55" type="ego_car" route="N2S" depart="473" departSpeed="10" departLane="best"/>
   <vehicle id="E2W_56" type="ego_car" route="E2W" depart="473" departSpeed="10" departLane="best"/>
   <vehicle id="N2S_57" type="ego_car" route="N2S" depart="475" departSpeed="10" departLane="best"/>
   <vehicle id="W2E_58" type="ego_car" route="W2E" depart="479" departSpeed="10" departLane="best"/>
   <vehicle id="S2N_59" type="ego_car" route="S2N" depart="484" departSpeed="10" departLane="best"/>
   <vehicle id="N2S_60" type="ego_car" route="N2S" depart="487" departSpeed="10" departLane="best"/>
   <vehicle id="S2N_61" type="ego_car" route="S2N" depart="490" departSpeed="10" departLane="best"/>
   <vehicle id="N2S_62" type="ego_car" route="N2S" depart="493" departSpeed="10" departLane="best"/>
   <vehicle id="E2W_63" type="ego_car" route="E2W" depart="494" departSpeed="10" departLane="best"/>
   <vehicle id="S2N_64" type="ego_car" route="S2N" depart="498" departSpeed="10" departLane="best"/>
   <vehicle id="W2E_65" type="ego_car" route="W2E" depart="503" departSpeed="10" departLane="best"/>
   <vehicle id="S2N_66" type="ego_car" route="S2N" depart="503" departSpeed="10" departLane="best"/>
   <vehicle id="S2N_67" type="ego_car" route="S2N" depart="504" departSpeed="10" departLane="best"/>
   <vehicle id="S2N_68" type="ego_car" route="S2N" depart="511" departSpeed="10" departLane="best"/>
   <vehicle id="N2S_69" type="ego_car" route="N2S" depart="516" departSpeed="10" departLane="best"/>
   <vehicle id="E2W_70" type="ego_car" route="E2W" depart="517" departSpeed="10" departLane="best"/>
   <vehicle id="W2E_71" type="ego_car" route="W2E" depart="523" departSpeed="10" departLane="best"/>
   <vehicle id="N2S_72" type="ego_car" route="N2S" depart="529" departSpeed="10" departLane="best"/>
   <vehicle id="E2W_73" type="ego_car" route="E2W" depart="530" departSpeed="10" departLane="best"/>
   <vehicle id="S2N_74" type="ego_car" route="S2N" depart="532" departSpeed="10" departLane="best"/>
   <vehicle id="W2E_75" type="ego_car" route="W2E" depart="534" departSpeed="10" departLane="best"/>
   <vehicle id="S2N_76" type="ego_car" route="S2N" depart="544" departSpeed="10" departLane="best"/>
   <vehicle id="E2W_77" type="ego_car" route="E2W" depart="549" departSpeed="10" departLane="best"/>
   <vehicle id="S2N_78" type="ego_car" route="S2N" depart="549" departSpeed="10" departLane="best"/>
   <vehicle id="S2N_79" type="ego_car" route="S2N" depart="554" departSpeed="10" departLane="best"/>
   <vehicle id="N2S_80" type="ego_car" route="N2S" depart="555" departSpeed="10" departLane="best"/>
   <vehicle id="W2E_81" type="ego_car" route="W2E" depart="557" departSpeed="10" departLane="best"/>
   <vehicle id="S2N_82" type="ego_car" route="S2N" depart="558" departSpeed="10" departLane="best"/>
   <vehicle id="W2E_83" type="ego_car" route="W2E" depart="559" departSpeed="10" departLane="best"/>
   <vehicle id="W2E_84" type="ego_car" route="W2E" depart="567" departSpeed="10" departLane="best"/>
   <vehicle id="E2W_85" type="ego_car" route="E2W" depart="569" departSpeed="10" departLane="best"/>
   <vehicle id="S2N_86" type="ego_car" route="S2N" depart="572" departSpeed="10" departLane="best"/>
   <vehicle id="S2N_87" type="ego_car" route="S2N" depart="578" departSpeed="10" departLane="best"/>
   <vehicle id="N2S_88" type="ego_car" route="N2S" depart="589" departSpeed="10" departLane="best"/>
   <vehicle id="S2N_89" type="ego_car" route="S2N" depart="598" departSpeed="10" departLane="best"/>
   <vehicle id="E2W_90" type="ego_car" route="E2W" depart="599" departSpeed="10" departLane="best"/>
   <vehicle id="S2N_91" type="ego_car" route="S2N" depart="600" departSpeed="10" departLane="best"/>
   <vehicle id="N2S_92" type="ego_car" route="N2S" depart="601" departSpeed="10" departLane="best"/>
   <vehicle id="W2E_93" type="ego_car" route="W2E" depart="604" departSpeed="10" departLane="best"/>
   <vehicle id="E2W_94" type="ego_car" route="E2W" depart="605" departSpeed="10" departLane="best"/>
   <vehicle id="S2N_95" type="ego_car" route="S2N" depart="606" departSpeed="10" departLane="best"/>
   <vehicle id="N2S_96" type="ego_car" route="N2S" depart="623" departSpeed="10" departLane="best"/>
   <vehicle id="E2W_97" type="ego_car" route="E2W" depart="623" departSpeed="10" departLane="best"/>
   <vehicle id="S2N_98" type="ego_car" route="S2N" depart="627" departSpeed="10" departLane="best"/>
   <vehicle id="W2E_99" type="ego_car" route="W2E" depart="638" departSpeed="10" departLane="best"/>
   <vehicle id="S2N_100" type="ego_car" route="S2N" depart="644" departSpeed="10" departLane="best"/>
   <vehicle id="S2N_101" type="ego_car" route="S2N" depart="647" departSpeed="10" departLane="best"/>
   <vehicle id="N2S_102" type="ego_car" route="N2S" depart="648" departSpeed="10" departLane="best"/>
   <vehicle id="S2N_103" type="ego_car" route="S2N" depart="655" departSpeed="10" departLane="best"/>
   <vehicle id="E2W_104" type="ego_car" route="E2W" depart="659" departSpeed="10" departLane="best"/>
   <vehicle id="N2S_105" type="ego_car" route="N2S" depart="659" departSpeed="10" departLane="best"/>
   <vehicle id="S2N_106" type="ego_car" route="S2N" depart="663" departSpeed="10" departLane="best"/>
   <vehicle id="E2W_107" type="ego_car" route="E2W" depart="666" departSpeed="10" departLane="best"/>
   <vehicle id="W2E_108" type="ego_car" route="W2E" depart="669" departSpeed="10" departLane="best"/>
   <vehicle id="W2E_109" type="ego_car" route="W2E" depart="669" departSpeed="10" departLane="best"/>
   <vehicle id="N2S_110" type="ego_car" route="N2S" depart="673" departSpeed="10" departLane="best"/>
   <vehicle id="S2N_111" type="ego_car" route="S2N" depart="673" departSpeed="10" departLane="best"/>
   <vehicle id="N2S_112" type="ego_car" route="N2S" depart="677" departSpeed="10" departLane="best"/>
   <vehicle id="W2E_113" type="ego_car" route="W2E" depart="690" departSpeed="10" departLane="best"/>
   <vehicle id="E2W_114" type="ego_car" route="E2W" depart="698" departSpeed="10" departLane="best"/>
   <vehicle id="W2E_115" type="ego_car" route="W2E" depart="714" departSpeed="10" departLane="best"/>
   <vehicle id="E2W_116" type="ego_car" route="E2W" depart="716" departSpeed="10" departLane="best"/>
   <vehicle id="N2S_117" type="ego_car" route="N2S" depart="716" departSpeed="10" departLane="best"/>
   <vehicle id="E2W_118" type="ego_car" route="E2W" depart="719" departSpeed="10" departLane="best"/>
   <vehicle id="E2W_119" type="ego_car" route="E2W" depart="722" departSpeed="10" departLane="best"/>
   <vehicle id="W2E_120" type="ego_car" route="W2E" depart="738" departSpeed="10" departLane="best"/>
   <vehicle id="N2S_121" type="ego_car" route="N2S" depart="738" departSpeed="10" departLane="best"/>
   <vehicle id="E2W_122" type="ego_car" route="E2W" depart="745" departSpeed="10" departLane="best"/>
   <vehicle id="W2E_123" type="ego_car" route="W2E" depart="746" departSpeed="10" departLane="best"/>
   <vehicle id="W2E_124" type="ego_car" route="W2E" depart="748" departSpeed="10" departLane="best"/>
   <vehicle id="N2S_125" type="ego_car" route="N2S" depart="751" departSpeed="10" departLane="best"/>
   <vehicle id="W2E_126" type="ego_car" route="W2E" depart="752" departSpeed="10" departLane="best"/>
   <vehicle id="W2E_127" type="ego_car" route="W2E" depart="754" departSpeed="10" departLane="best"/>
   <vehicle id="S2N_128" type="ego_car" route="S2N" depart="755" departSpeed="10" departLane="best"/>
   <vehicle id="S2N_129" type="ego_car" route="S2N" depart="757" departSpeed="10" departLane="best"/>
   <vehicle id="W2E_130" type="ego_car" route="W2E" depart="758" departSpeed="10" departLane="best"/>
   <vehicle id="W2E_131" type="ego_car" route="W2E" depart="763" departSpeed="10" departLane="best"/>
   <vehicle id="N2S_132" type="ego_car" route="N2S" depart="765" departSpeed="10" departLane="best"/>
   <vehicle id="S2N_133" type="ego_car" route="S2N" depart="766" departSpeed="10" departLane="best"/>
   <vehicle id="W2E_134" type="ego_car" route="W2E" depart="772" departSpeed="10" departLane="best"/>
   <vehicle id="N2S_135" type="ego_car" route="N2S" depart="780" departSpeed="10" departLane="best"/>
   <vehicle id="W2E_136" type="ego_car" route="W2E" depart="781" departSpeed="10" departLane="best"/>
   <vehicle id="N2S_137" type="ego_car" route="N2S" depart="784" departSpeed="10" departLane="best"/>
   <vehicle id="W2E_138" type="ego_car" route="W2E" depart="793" departSpeed="10" departLane="best"/>
   <vehicle id="S2N_139" type="ego_car" route="S2N" depart="797" departSpeed="10" departLane="best"/>
   <vehicle id="W2E_140" type="ego_car" route="W2E" depart="798" departSpeed="10" departLane="best"/>
   <vehicle id="N2S_141" type="ego_car" route="N2S" depart="799" departSpeed="10" departLane="best"/>
   <vehicle id="E2W_142" type="ego_car" route="E2W" depart="810" departSpeed="10" departLane="best"/>
   <vehicle id="S2N_143" type="ego_car" route="S2N" depart="812" departSpeed="10" departLane="best"/>
   <vehicle id="N2S_144" type="ego_car" route="N2S" depart="815" departSpeed="10" departLane="best"/>
   <vehicle id="N2S_145" type="ego_car" route="N2S" depart="816" departSpeed="10" departLane="best"/>
   <vehicle id="E2W_146" type="ego_car" route="E2W" depart="818" departSpeed="10" departLane="best"/>
   <vehicle id="E2W_147" type="ego_car" route="E2W" depart="821" departSpeed="10" departLane="best"/>
   <vehicle id="N2S_148" type="ego_car" route="N2S" depart="821" departSpeed="10" departLane="best"/>
   <vehicle id="N2S_149" type="ego_car" route="N2S" depart="821" departSpeed="10" departLane="best"/>
   <vehicle id="E2W_150" type="ego_car" route="E2W" depart="822" departSpeed="10" departLane="best"/>
   <vehicle id="S2N_151" type="ego_car" route="S2N" depart="829" departSpeed="10" departLane="best"/>
   <vehicle id="E2W_152" type="ego_car" route="E2W" depart="834" departSpeed="10" departLane="best"/>
   <vehicle id="N2S_153" type="ego_car" route="N2S" depart="840" departSpeed="10" departLane="best"/>
   <vehicle id="N2S_154" type="ego_car" route="N2S" depart="840" departSpeed="10" departLane="best"/>
   <vehicle id="N2S_155" type="ego_car" route="N2S" depart="841" departSpeed="10" departLane="best"/>
   <vehicle id="E2W_156" type="ego_car" route="E2W" depart="847" departSpeed="10" departLane="best"/>
   <vehicle id="N2S_157" type="ego_car" route="N2S" depart="848" departSpeed="10" departLane="best"/>
   <vehicle id="S2N_158" type="ego_car" route="S2N" depart="848" departSpeed="10" departLane="best"/>
   <vehicle id="W2E_159" type="ego_car" route="W2E" depart="851" departSpeed="10" departLane="best"/>
   <vehicle id="E2W_160" type="ego_car" route="E2W" depart="857" departSpeed="10" departLane="best"/>
   <vehicle id="E2W_161" type="ego_car" route="E2W" depart="861" departSpeed="10" departLane="best"/>
   <vehicle id="S2N_162" type="ego_car" route="S2N" depart="861" departSpeed="10" departLane="best"/>
   <vehicle id="W2E_163" type="ego_car" route="W2E" depart="875" departSpeed="10" departLane="best"/>
   <vehicle id="W2E_164" type="ego_car" route="W2E" depart="875" departSpeed="10" departLane="best"/>
   <vehicle id="W2E_165" type="ego_car" route="W2E" depart="880" departSpeed="10" departLane="best"/>
   <vehicle id="W2E_166" type="ego_car" route="W2E" depart="880" departSpeed="10" departLane="best"/>
   <vehicle id="E2W_167" type="ego_car" route="E2W" depart="885" departSpeed="10" departLane="best"/>
   <vehicle id="N2S_168" type="ego_car" route="N2S" depart="886" departSpeed="10" departLane="best"/>
   <vehicle id="S2N_169" type="ego_car" route="S2N" depart="887" departSpeed="10" departLane="best"/>
   <vehicle id="N2S_170" type="ego_car" route="N2S" depart="892" departSpeed="10" departLane="best"/>
   <vehicle id="N2S_171" type="ego_car" route="N2S" depart="903" departSpeed="10" departLane="best"/>
   <vehicle id="E2W_172" type="ego_car" route="E2W" depart="905" departSpeed="10" departLane="best"/>
   <vehicle id="E2W_173" type="ego_car" route="E2W" depart="912" departSpeed="10" departLane="best"/>
   <vehicle id="S2N_174" type="ego_car" route="S2N" depart="913" departSpeed="10" departLane="best"/>
   <vehicle id="N2S_175" type="ego_car" route="N2S" depart="916" departSpeed="10" departLane="best"/>
   <vehicle id="E2W_176" type="ego_car" route="E2W" depart="926" departSpeed="10" departLane="best"/>
   <vehicle id="W2E_177" type="ego_car" route="W2E" depart="928" departSpeed="10" departLane="best"/>
   <vehicle id="E2W_178" type="ego_car" route="E2W" depart="930" departSpeed="10" departLane="best"/>
   <vehicle id="E2W_179" type="ego_car" route="E2W" depart="938" departSpeed="10" departLane="best"/>
   <vehicle id="E2W_180" type="ego_car" route="E2W" depart="939" departSpeed="10" departLane="best"/>
   <vehicle id="S2N_181" type="ego_car" route="S2N" depart="939" departSpeed="10" departLane="best"/>
   <vehicle id="N2S_182" type="ego_car" route="N2S" depart="942" departSpeed="10" departLane="best"/>
   <vehicle id="N2S_183" type="ego_car" route="N2S" depart="948" departSpeed="10" departLane="best"/>
   <vehicle id="S2N_184" type="ego_car" route="S2N" depart="950" departSpeed="10" departLane="best"/>
   <vehicle id="N2S_185" type="ego_car" route="N2S" depart="958" departSpeed="10" departLane="best"/>
   <vehicle id="N2S_186" type="ego_car" route="N2S" depart="961" departSpeed="10" departLane="best"/>
   <vehicle id="N2S_187" type="ego_car" route="N2S" depart="962" departSpeed="10" departLane="best"/>
   <vehicle id="S2N_188" type="ego_car" route="S2N" depart="964" departSpeed="10" departLane="best"/>
   <vehicle id="E2W_189" type="ego_car" route="E2W" depart="967" departSpeed="10" departLane="best"/>
   <vehicle id="N2S_190" type="ego_car" route="N2S" depart="969" departSpeed="10" departLane="best"/>
   <vehicle id="N2S_191" type="ego_car" route="N2S" depart="971" departSpeed="10" departLane="best"/>
   <vehicle id="E2W_192" type="ego_car" route="E2W" depart="973" departSpeed="10" departLane="best"/>
   <vehicle id="N2S_193" type="ego_car" route="N2S" depart="977" departSpeed="10" departLane="best"/>
   <vehicle id="W2E_194" type="ego_car" route="W2E" depart="986" departSpeed="10" departLane="best"/>
   <vehicle id="W2E_195" type="ego_car" route="W2E" depart="988" departSpeed="10" departLane="best"/>
   <vehicle id="E2W_196" type="ego_car" route="E2W" depart="994" departSpeed="10" departLane="best"/>
   <vehicle id="S2N_197" type="ego_car" route="S2N" depart="994" departSpeed="10" departLane="best"/>
   <vehicle id="E2W_198" type="ego_car" route="E2W" depart="1004" departSpeed="10" departLane="best"/>
   <vehicle id="E2W_199" type="ego_car" route="E2W" depart="1004" departSpeed="10" departLane="best"/>
   <vehicle id="S2N_200" type="ego_car" route="S2N" depart="1008" departSpeed="10" departLane="best"/>
   <vehicle id="S2N_201" type="ego_car" route="S2N" depart="1008" departSpeed="10" departLane="best"/>
   <vehicle id="W2E_202" type="ego_car" route="W2E" depart="1011" departSpeed="10" departLane="best"/>
   <vehicle id="N2S_203" type="ego_car" route="N2S" depart="1011" departSpeed="10" departLane="best"/>
   <vehicle id="W2E_204" type="ego_car" route="W2E" depart="1015" departSpeed="10" departLane="best"/>
   <vehicle id="S2N_205" type="ego_car" route="S2N" depart="1016" departSpeed="10" departLane="best"/>
   <vehicle id="N2S_206" type="ego_car" route="N2S" depart="1022" departSpeed="10" departLane="best"/>
   <vehicle id="E2W_207" type="ego_car" route="E2W" depart="1026" departSpeed="10" departLane="best"/>
   <vehicle id="S2N_208" type="ego_car" route="S2N" depart="1032" departSpeed="10" departLane="best"/>
   <vehicle id="E2W_209" type="ego_car" route="E2W" depart="1036" departSpeed="10" departLane="best"/>
   <vehicle id="W2E_210" type="ego_car" route="W2E" depart="1038" departSpeed="10" departLane="best"/>
   <vehicle id="N2S_211" type="ego_car" route="N2S" depart="1045" departSpeed="10" departLane="best"/>
   <vehicle id="E2W_212" type="ego_car" route="E2W" depart="1047" departSpeed="10" departLane="best"/>
   <vehicle id="S2N_213" type="ego_car" route="S2N" depart="1049" departSpeed="10" departLane="best"/>
   <vehicle id="E2W_214" type="ego_car" route="E2W" depart="1071" departSpeed="10" departLane="best"/>
   <vehicle id="S2N_215" type="ego_car" route="S2N" depart="1071" departSpeed="10" departLane="best"/>
   <vehicle id="S2N_216" type="ego_car" route="S2N" depart="1073" departSpeed="10" departLane="best"/>
   <vehicle id="N2S_217" type="ego_car" route="N2S" depart="1073" departSpeed="10" departLane="best"/>
   <vehicle id="S2N_218" type="ego_car" route="S2N" depart="1081" departSpeed="10" departLane="best"/>
   <vehicle id="S2N_219" type="ego_car" route="S2N" depart="1084" departSpeed="10" departLane="best"/>
   <vehicle id="S2N_220" type="ego_car" route="S2N" depart="1085" departSpeed="10" departLane="best"/>
   <vehicle id="E2W_221" type="ego_car" route="E2W" depart="1087" departSpeed="10" departLane="best"/>
   <vehicle id="S2N_222" type="ego_car" route="S2N" depart="1089" departSpeed="10" departLane="best"/>
   <vehicle id="S2N_223" type="ego_car" route="S2N" depart="1092" departSpeed="10" departLane="best"/>
   <vehicle id="N2S_224" type="ego_car" route="N2S" depart="1098" departSpeed="10" departLane="best"/>
   <vehicle id="S2N_225" type="ego_car" route="S2N" depart="1100" departSpeed="10" departLane="best"/>
   <vehicle id="E2W_226" type="ego_car" route="E2W" depart="1110" departSpeed="10" departLane="best"/>
   <vehicle id="W2E_227" type="ego_car" route="W2E" depart="1116" departSpeed="10" departLane="best"/>
   <vehicle id="W2E_228" type="ego_car" route="W2E" depart="1119" departSpeed="10" departLane="best"/>
   <vehicle id="S2N_229" type="ego_car" route="S2N" depart="1127" departSpeed="10" departLane="best"/>
   <vehicle id="S2N_230" type="ego_car" route="S2N" depart="1132" departSpeed="10" departLane="best"/>
   <vehicle id="W2E_231" type="ego_car" route="W2E" depart="1133" departSpeed="10" departLane="best"/>
   <vehicle id="W2E_232" type="ego_car" route="W2E" depart="1134" departSpeed="10" departLane="best"/>
   <vehicle id="E2W_233" type="ego_car" route="E2W" depart="1136" departSpeed="10" departLane="best"/>
   <vehicle id="W2E_234" type="ego_car" route="W2E" depart="1143" departSpeed="10" departLane="best"/>
   <vehicle id="N2S_235" type="ego_car" route="N2S" depart="1143" departSpeed="10" departLane="best"/>
   <vehicle id="W2E_236" type="ego_car" route="W2E" depart="1146" departSpeed="10" departLane="best"/>
   <vehicle id="N2S_237" type="ego_car" route="N2S" depart="1151" departSpeed="10" departLane="best"/>
   <vehicle id="S2N_238" type="ego_car" route="S2N" depart="1152" departSpeed="10" departLane="best"/>
   <vehicle id="W2E_239" type="ego_car" route="W2E" depart="1154" departSpeed="10" departLane="best"/>
   <vehicle id="N2S_240" type="ego_car" route="N2S" depart="1163" departSpeed="10" departLane="best"/>
   <vehicle id="W2E_241" type="ego_car" route="W2E" depart="1166" departSpeed="10" departLane="best"/>
   <vehicle id="E2W_242" type="ego_car" route="E2W" depart="1166" departSpeed="10" departLane="best"/>
   <vehicle id="S2N_243" type="ego_car" route="S2N" depart="1167" departSpeed="10" departLane="best"/>
   <vehicle id="S2N_244" type="ego_car" route="S2N" depart="1174" departSpeed="10" departLane="best"/>
   <vehicle id="S2N_245" type="ego_car" route="S2N" depart="1177" departSpeed="10" departLane="best"/>
   <vehicle id="N2S_246" type="ego_car" route="N2S" depart="1179" departSpeed="10" departLane="best"/>
   <vehicle id="E2W_247" type="ego_car" route="E2W" depart="1183" departSpeed="10" departLane="best"/>
   <vehicle id="W2E_248" type="ego_car" route="W2E" depart="1186" departSpeed="10" departLane="best"/>
   <vehicle id="N2S_249" type="ego_car" route="N2S" depart="1193" departSpeed="10" departLane="best"/>
   <vehicle id="W2E_250" type="ego_car" route="W2E" depart="1208" departSpeed="10" departLane="best"/>
   <vehicle id="N2S_251" type="ego_car" route="N2S" depart="1219" departSpeed="10" departLane="best"/>
   <vehicle id="W2E_252" type="ego_car" route="W2E" depart="1223" departSpeed="10" departLane="best"/>
   <vehicle id="S2N_253" type="ego_car" route="S2N" depart="1225" departSpeed="10" departLane="best"/>
   <vehicle id="S2N_254" type="ego_car" route="S2N" depart="1239" departSpeed="10" departLane="best"/>
   <vehicle id="E2W_255" type="ego_car" route="E2W" depart="1246" departSpeed="10" departLane="best"/>
   <vehicle id="W2E_256" type="ego_car" route="W2E" depart="1247" departSpeed="10" departLane="best"/>
   <vehicle id="N2S_257" type="ego_car" route="N2S" depart="1247" departSpeed="10" departLane="best"/>
   <vehicle id="E2W_258" type="ego_car" route="E2W" depart="1253" departSpeed="10" departLane="best"/>
   <vehicle id="N2S_259" type="ego_car" route="N2S" depart="1255" departSpeed="10" departLane="best"/>
   <vehicle id="E2W_260" type="ego_car" route="E2W" depart="1256" departSpeed="10" departLane="best"/>
   <vehicle id="S2N_261" type="ego_car" route="S2N" depart="1261" departSpeed="10" departLane="best"/>
   <vehicle id="W2E_262" type="ego_car" route="W2E" depart="1262" departSpeed="10" departLane="best"/>
   <vehicle id="N2S_263" type="ego_car" route="N2S" depart="1264" departSpeed="10" departLane="best"/>
   <vehicle id="E2W_264" type="ego_car" route="E2W" depart="1266" departSpeed="10" departLane="best"/>
   <vehicle id="W2E_265" type="ego_car" route="W2E" depart="1268" departSpeed="10" departLane="best"/>
   <vehicle id="W2E_266" type="ego_car" route="W2E" depart="1268" departSpeed="10" departLane="best"/>
   <vehicle id="W2E_267" type="ego_car" route="W2E" depart="1270" departSpeed="10" departLane="best"/>
   <vehicle id="E2W_268" type="ego_car" route="E2W" depart="1280" departSpeed="10" departLane="best"/>
   <vehicle id="E2W_269" type="ego_car" route="E2W" depart="1287" departSpeed="10" departLane="best"/>
   <vehicle id="N2S_270" type="ego_car" route="N2S" depart="1291" departSpeed="10" departLane="best"/>
   <vehicle id="N2S_271" type="ego_car" route="N2S" depart="1293" departSpeed="10" departLane="best"/>
   <vehicle id="E2W_272" type="ego_car" route="E2W" depart="1300" departSpeed="10" departLane="best"/>
   <vehicle id="W2E_273" type="ego_car" route="W2E" depart="1304" departSpeed="10" departLane="best"/>
   <vehicle id="E2W_274" type="ego_car" route="E2W" depart="1310" departSpeed="10" departLane="best"/>
   <vehicle id="S2N_275" type="ego_car" route="S2N" depart="1314" departSpeed="10" departLane="best"/>
   <vehicle id="E2W_276" type="ego_car" route="E2W" depart="1340" departSpeed="10" departLane="best"/>
   <vehicle id="W2E_277" type="ego_car" route="W2E" depart="1341" departSpeed="10" departLane="best"/>
   <vehicle id="W2E_278" type="ego_car" route="W2E" depart="1341" departSpeed="10" departLane="best"/>
   <vehicle id="E2W_279" type="ego_car" route="E2W" depart="1341" departSpeed="10" departLane="best"/>
   <vehicle id="E2W_280" type="ego_car" route="E2W" depart="1342" departSpeed="10" departLane="best"/>
   <vehicle id="S2N_281" type="ego_car" route="S2N" depart="1344" departSpeed="10" departLane="best"/>
   <vehicle id="W2E_282" type="ego_car" route="W2E" depart="1352" departSpeed="10" departLane="best"/>
   <vehicle id="N2S_283" type="ego_car" route="N2S" depart="1352" departSpeed="10" departLane="best"/>
   <vehicle id="E2W_284" type="ego_car" route="E2W" depart="1353" departSpeed="10" departLane="best"/>
   <vehicle id="W2E_285" type="ego_car" route="W2E" depart="1356" departSpeed="10" departLane="best"/>
   <vehicle id="S2N_286" type="ego_car" route="S2N" depart="1366" departSpeed="10" departLane="best"/>
   <vehicle id="E2W_287" type="ego_car" route="E2W" depart="1368" departSpeed="10" departLane="best"/>
   <vehicle id="E2W_288" type="ego_car" route="E2W" depart="1371" departSpeed="10" departLane="best"/>
   <vehicle id="N2S_289" type="ego_car" route="N2S" depart="1382" departSpeed="10" departLane="best"/>
   <vehicle id="E2W_290" type="ego_car" route="E2W" depart="1382" departSpeed="10" departLane="best"/>