<routes>

        <vType id = 'ego_car' vclass="evehicle" emissionClass="Energy" tau="1.5" accel="3.0" decel="3.0" color="#00FFFF" sigma="0.2" length="4.90" minGap="1.0" maxSpeed="20" carFollowing="IDM" guiShape="passenger"/>

        <route id="N2S" edges="NS -SN"/>
        <route id="S2N" edges="SN -NS"/>
        <route id="W2E" edges="WE -EW"/>
        <route id="E2W" edges="EW -WE"/>
   <vehicle id="N2S_1" type="ego_car" route="N2S" depart="109" departSpeed="10" departLane="best"/>
   <vehicle id="S2N_2" type="ego_car" route="S2N" depart="136" departSpeed="10" departLane="best"/>
   <vehicle id="S2N_3" type="ego_car" route="S2N" depart="143" departSpeed="10" departLane="best"/>
   <vehicle id="E2W_4" type="ego_car" route="E2W" depart="147" departSpeed="10" departLane="best"/>
   <vehicle id="E2W_5" type="ego_car" route="E2W" depart="154" departSpeed="10" departLane="best"/>
   <vehicle id="N2S_6" type="ego_car" route="N2S" depart="163" departSpeed="10" departLane="best"/>
   <vehicle id="E2W_7" type="ego_car" route="E2W" depart="199" departSpeed="10" departLane="best"/>
   <vehicle id="N2S_8" type="ego_car" route="N2S" depart="204" departSpeed="10" departLane="best"/>
   <vehicle id="N2S_9" type="ego_car" route="N2S" depart="208" departSpeed="10" departLane="best"/>
   <vehicle id="S2N_10" type="ego_car" route="S2N" depart="214" departSpeed="10" departLane="best"/>
   <vehicle id="W2E_11" type="ego_car" route="W2E" depart="248" departSpeed="10" departLane="best"/>
   <vehicle id="W2E_12" type="ego_car" route="W2E" depart="281" departSpeed="10" departLane="best"/>
   <vehicle id="E2W_13" type="ego_car" route="E2W" depart="297" departSpeed="10" departLane="best"/>
   <vehicle id="W2E_14" type="ego_car" route="W2E" depart="298" departSpeed="10" departLane="best"/>
   <vehicle id="S2N_15" type="ego_car" route="S2N" depart="302" departSpeed="10" departLane="best"/>
   <vehicle id="W2E_16" type="ego_car" route="W2E" depart="306" departSpeed="10" departLane="best"/>
   <vehicle id="E2W_17" type="ego_car" route="E2W" depart="314" departSpeed="10" departLane="best"/>
   <vehicle id="N2S_18" type="ego_car" route="N2S" depart="315" departSpeed="10" departLane="best"/>
   <vehicle id="S2N_19" type="ego_car" route="S2N" depart="319" departSpeed="10" departLane="best"/>
   <vehicle id="N2S_20" type="ego_car" route="N2S" depart="322" departSpeed="10" departLane="best"/>
   <vehicle id="S2N_21" type="ego_car" route="S2N" depart="326" departSpeed="10" departLane="best"/>
   <vehicle id="W2E_22" type="ego_car" route="W2E" depart="348" departSpeed="10" departLane="best"/>
   <vehicle id="E2W_23" type="ego_car" route="E2W" depart="355" departSpeed="10" departLane="best"/>
   <vehicle id="N2S_24" type="ego_car" route="N2S" depart="366" departSpeed="10" departLane="best"/>
   <vehicle id="N2S_25" type="ego_car" route="N2S" depart="368" departSpeed="10" departLane="best"/>
   <vehicle id="N2S_26" type="ego_car" route="N2S" depart="384" departSpeed="10" departLane="best"/>
   <vehicle id="S2N_27" type="ego_car" route="S2N" depart="387" departSpeed="10" departLane="best"/>
   <vehicle id="E2W_28" type="ego_car" route="E2W" depart="387" departSpeed="10" departLane="best"/>
   <vehicle id="W2E_29" type="ego_car" route="W2E" depart="388" departSpeed="10" departLane="best"/>
   <vehicle id="W2E_30" type="ego_car" route="W2E" depart="390" departSpeed="10" departLane="best"/>
   <vehicle id="N2S_31" type="ego_car" route="N2S" depart="390" departSpeed="10" departLane="best"/>
   <vehicle id="N2S_32" type="ego_car" route="N2S" depart="395" departSpeed="10" departLane="best"/>
   <vehicle id="E2W_33" type="ego_car" route="E2W" depart="399" departSpeed="10" departLane="best"/>
   <vehicle id="N2S_34" type="ego_car" route="N2S" depart="407" departSpeed="10" departLane="best"/>
   <vehicle id="S2N_35" type="ego_car" route="S2N" depart="411" departSpeed="10" departLane="best"/>
   <vehicle id="W2E_36" type="ego_car" route="W2E" depart="429" departSpeed="10" departLane="best"/>
   <vehicle id="N2S_37" type="ego_car" route="N2S" depart="430" departSpeed="10" departLane="best"/>
   <vehicle id="E2W_38" type="ego_car" route="E2W" depart="434" departSpeed="10" departLane="best"/>
   <vehicle id="N2S_39" type="ego_car" route="N2S" depart="441" departSpeed="10" departLane="best"/>
   <vehicle id="S2N_40" type="ego_car" route="S2N" depart="442" departSpeed="10" departLane="best"/>
   <vehicle id="S2N_41" type="ego_car" route="S2N" depart="442" departSpeed="10" departLane="best"/>
   <vehicle id="N2S_42" type="ego_car" route="N2S" depart="455" departSpeed="10" departLane="best"/>
   <vehicle id="W2E_43" type="ego_car" route="W2E" depart="456" departSpeed="10" departLane="best"/>
   <vehicle id="S2N_44" type="ego_car" route="S2N" depart="460" departSpeed="10" departLane="best"/>
   <vehicle id="E2W_45" type="ego_car" route="E2W" depart="461" departSpeed="10" departLane="best"/>
   <vehicle id="N2S_46" type="ego_car" route="N2S" depart="465" departSpeed="10" departLane="best"/>
   <vehicle id="W2E_47" type="ego_car" route="W2E" depart="471" departSpeed="10" departLane="best"/>
   <vehicle id="N2S_48" type="ego_car" route="N2S" depart="472" departSpeed="10" departLane="best"/>
   <vehicle id="S2N_49" type="ego_car" route="S2N" depart="473" departSpeed="10" departLane="best"/>
   <vehicle id="E2W_50" type="ego_car" route="E2W" depart="481" departSpeed="10" departLane="best"/>
   <vehicle id="N2S_51" type="ego_car" route="N2S" depart="487" departSpeed="10" departLane="best"/>
   <vehicle id="S2N_52" type="ego_car" route="S2N" depart="494" departSpeed="10" departLane="best"/>
   <vehicle id="E2W_53" type="ego_car" route="E2W" depart="496" departSpeed="10" departLane="best"/>
   <vehicle id="S2N_54" type="ego_car" route="S2N" depart="497" departSpeed="10" departLane="best"/>
   <vehicle id="S2N_55" type="ego_car" route="S2N" depart="508" departSpeed="10" departLane="best"/>
   <vehicle id="E2W_56" type="ego_car" route="E2W" depart="511" departSpeed="10" departLane="best"/>
   <vehicle id="E2W_57" type="ego_car" route="E2W" depart="516" departSpeed="10" departLane="best"/>
   <vehicle id="E2W_58" type="ego_car" route="E2W" depart="520" departSpeed="10" departLane="best"/>
   <vehicle id="S2N_59" type="ego_car" route="S2N" depart="520" departSpeed="10" departLane="best"/>
   <vehicle id="S2N_60" type="ego_car" route="S2N" depart="521" departSpeed="10" departLane="best"/>
   <vehicle id="S2N_61" type="ego_car" route="S2N" depart="522" departSpeed="10" departLane="best"/>
   <vehicle id="N2S_62" type="ego_car" route="N2S" depart="525" departSpeed="10" departLane="best"/>
   <vehicle id="E2W_63" type="ego_car" route="E2W" depart="530" departSpeed="10" departLane="best"/>
   <vehicle id="E2W_64" type="ego_car" route="E2W" depart="531" departSpeed="10" departLane="best"/>
   <vehicle id="S2N_65" type="ego_car" route="S2N" depart="535" departSpeed="10" departLane="best"/>
   <vehicle id="S2N_66" type="ego_car" route="S2N" depart="536" departSpeed="10" departLane="best"/>
   <vehicle id="N2S_67" type="ego_car" route="N2S" depart="537" departSpeed="10" departLane="best"/>
   <vehicle id="S2N_68" type="ego_car" route="S2N" depart="541" departSpeed="10" departLane="best"/>
   <vehicle id="S2N_69" type="ego_car" route="S2N" depart="545" departSpeed="10" departLane="best"/>
   <vehicle id="E2W_70" type="ego_car" route="E2W" depart="560" departSpeed="10" departLane="best"/>
   <vehicle id="N2S_71" type="ego_car" route="N2S" depart="571" departSpeed="10" departLane="best"/>
   <vehicle id="S2N_72" type="ego_car" route="S2N" depart="591" departSpeed="10" departLane="best"/>
   <vehicle id="E2W_73" type="ego_car" route="E2W" depart="611" departSpeed="10" departLane="best"/>
   <vehicle id="E2W_74" type="ego_car" route="E2W" depart="614" departSpeed="10" departLane="best"/>
   <vehicle id="E2W_75" type="ego_car" route="E2W" depart="625" departSpeed="10" departLane="best"/>
   <vehicle id="S2N_76" type="ego_car" route="S2N" depart="626" departSpeed="10" departLane="best"/>
   <vehicle id="S2N_77" type="ego_car" route="S2N" depart="626" departSpeed="10" departLane="best"/>
   <vehicle id="W2E_78" type="ego_car" route="W2E" depart="637" departSpeed="10" departLane="best"/>
   <vehicle id="N2S_79" type="ego_car" route="N2S" depart="637" departSpeed="10" departLane="best"/>
   <vehicle id="E2W_80" type="ego_car" route="E2W" depart="643" departSpeed="10" departLane="best"/>
   <vehicle id="N2S_81" type="ego_car" route="N2S" depart="664" departSpeed="10" departLane="best"/>
   <vehicle id="E2W_82" type="ego_car" route="E2W" depart="668" departSpeed="10" departLane="best"/>
   <vehicle id="E2W_83" type="ego_car" route="E2W" depart="671" departSpeed="10" departLane="best"/>
   <vehicle id="E2W_84" type="ego_car" route="E2W" depart="678" departSpeed="10" departLane="best"/>
   <vehicle id="N2S_85" type="ego_car" route="N2S" depart="679" departSpeed="10" departLane="best"/>
   <vehicle id="S2N_86" type="ego_car" route="S2N" depart="684" departSpeed="10" departLane="best"/>
   <vehicle id="E2W_87" type="ego_car" route="E2W" depart="684" departSpeed="10" departLane="best"/>
   <vehicle id="S2N_88" type="ego_car" route="S2N" depart="686" departSpeed="10" departLane="best"/>
   <vehicle id="S2N_89" type="ego_car" route="S2N" depart="687" departSpeed="10" departLane="best"/>
   <vehicle id="S2N_90" type="ego_car" route="S2N" depart="692" departSpeed="10" departLane="best"/>
   <vehicle id="E2W_91" type="ego_car" route="E2W" depart="700" departSpeed="10" departLane="best"/>
   <vehicle id="W2E_92" type="ego_car" route="W2E" depart="704" departSpeed="10" departLane="best"/>
   <vehicle id="S2N_93" type="ego_car" route="S2N" depart="709" departSpeed="10" departLane="best"/>
   <vehicle id="E2W_94" type="ego_car" route="E2W" depart="711" departSpeed="10" departLane="best"/>
   <vehicle id="N2S_95" type="ego_car" route="N2S" depart="718" departSpeed="10" departLane="best"/>
   <vehicle id="E2W_96" type="ego_car" route="E2W" depart="718" departSpeed="10" departLane="best"/>
   <vehicle id="E2W_97" type="ego_car" route="E2W" depart="720" departSpeed="10" departLane="best"/>
   <vehicle id="N2S_98" type="ego_car" route="N2S" depart="732" departSpeed="10" departLane="best"/>
   <vehicle id="W2E_99" type="ego_car" route="W2E" depart="736" departSpeed="10" departLane="best"/>
   <vehicle id="S2N_100" type="ego_car" route="S2N" depart="740" departSpeed="10" departLane="best"/>
   <vehicle id="E2W_101" type="ego_car" route="E2W" depart="740" departSpeed="10" departLane="best"/>
   <vehicle id="N2S_102" type="ego_car" route="N2S" depart="741" departSpeed="10" departLane="best"/>
   <vehicle id="W2E_103" type="ego_car" route="W2E" depart="750" departSpeed="10" departLane="best"/>
   <vehicle id="W2E_104" type="ego_car" route="W2E" depart="755" departSpeed="10" departLane="best"/>
   <vehicle id="N2S_105" type="ego_car" route="N2S" depart="760" departSpeed="10" departLane="best"/>
   <vehicle id="W2E_106" type="ego_car" route="W2E" depart="762" departSpeed="10" departLane="best"/>
   <vehicle id="S2N_107" type="ego_car" route="S2N" depart="763" departSpeed="10" departLane="best"/>
   <vehicle id="E2W_108" type="ego_car" route="E2W" depart="763" departSpeed="10" departLane="best"/>
   <vehicle id="S2N_109" type="ego_car" route="S2N" depart="764" departSpeed="10" departLane="best"/>
   <vehicle id="N2S_110" type="ego_car" route="N2S" depart="769" departSpeed="10" departLane="best"/>
   <vehicle id="E2W_111" type="ego_car" route="E2W" depart="769" departSpeed="10" departLane="best"/>
   <vehicle id="S2N_112" type="ego_car" route="S2N" depart="772" departSpeed="10" departLane="best"/>
   <vehicle id="N2S_113" type="ego_car" route="N2S" depart="775" departSpeed="10" departLane="best"/>
   <vehicle id="N2S_114" type="ego_car" route="N2S" depart="781" departSpeed="10" departLane="best"/>
   <vehicle id="N2S_115" type="ego_car" route="N2S" depart="783" departSpeed="10" departLane="best"/>
   <vehicle id="E2W_116" type="ego_car" route="E2W" depart="788" departSpeed="10" departLane="best"/>
   <vehicle id="E2W_117" type="ego_car" route="E2W" depart="788" departSpeed="10" departLane="best"/>
   <vehicle id="S2N_118" type="ego_car" route="S2N" depart="794" departSpeed="10" departLane="best"/>
   <vehicle id="S2N_119" type="ego_car" route="S2N" depart="795" departSpeed="10" departLane="best"/>
   <vehicle id="N2S_120" type="ego_car" route="N2S" depart="798" departSpeed="10" departLane="best"/>
   <vehicle id="N2S_121" type="ego_car" route="N2S" depart="808" departSpeed="10" departLane="best"/>
   <vehicle id="E2W_122" type="ego_car" route="E2W" depart="811" departSpeed="10" departLane="best"/>
   <vehicle id="S2N_123" type="ego_car" route="S2N" depart="822" departSpeed="10" departLane="best"/>
   <vehicle id="S2N_124" type="ego_car" route="S2N" depart="825" departSpeed="10" departLane="best"/>
   <vehicle id="E2W_125" type="ego_car" route="E2W" depart="827" departSpeed="10" departLane="best"/>
   <vehicle id="N2S_126" type="ego_car" route="N2S" depart="833" departSpeed="10" departLane="best"/>
   <vehicle id="N2S_127" type="ego_car" route="N2S" depart="844" departSpeed="10" departLane="best"/>
   <vehicle id="W2E_128" type="ego_car" route="W2E" depart="849" departSpeed="10" departLane="best"/>
   <vehicle id="S2N_129" type="ego_car" route="S2N" depart="858" departSpeed="10" departLane="best"/>
   <vehicle id="S2N_130" type="ego_car" route="S2N" depart="866" departSpeed="10" departLane="best"/>
   <vehicle id="W2E_131" type="ego_car" route="W2E" depart="867" departSpeed="10" departLane="best"/>
   <vehicle id="E2W_132" type="ego_car" route="E2W" depart="870" departSpeed="10" departLane="best"/>
   <vehicle id="N2S_133" type="ego_car" route="N2S" depart="879" departSpeed="10" departLane="best"/>
   <vehicle id="N2S_134" type="ego_car" route="N2S" depart="882" departSpeed="10" departLane="best"/>
   <vehicle id="N2S_135" type="ego_car" route="N2S" depart="890" departSpeed="10" departLane="best"/>
   <vehicle id="E2W_136" type="ego_car" route="E2W" depart="890" departSpeed="10" departLane="best"/>
   <vehicle id="N2S_137" type="ego_car" route="N2S" depart="894" departSpeed="10" departLane="best"/>
   <vehicle id="S2N_138" type="ego_car" route="S2N" depart="895" departSpeed="10" departLane="best"/>
   <vehicle id="S2N_139" type="ego_car" route="S2N" depart="899" departSpeed="10" departLane="best"/>
   <vehicle id="N2S_140" type="ego_car" route="N2S" depart="900" departSpeed="10" departLane="best"/>
   <vehicle id="N2S_141" type="ego_car" route="N2S" depart="901" departSpeed="10" departLane="best"/>
   <vehicle id="W2E_142" type="ego_car" route="W2E" depart="902" departSpeed="10" departLane="best"/>
   <vehicle id="N2S_143" type="ego_car" route="N2S" depart="902" departSpeed="10" departLane="best"/>
   <vehicle id="N2S_144" type="ego_car" route="N2S" depart="904" departSpeed="10" departLane="best"/>
   <vehicle id="N2S_145" type="ego_car" route="N2S" depart="908" departSpeed="10" departLane="best"/>
   <vehicle id="S2N_146" type="ego_car" route="S2N" depart="912" departSpeed="10" departLane="best"/>
   <vehicle id="S2N_147" type="ego_car" route="S2N" depart="919" departSpeed="10" departLane="best"/>
   <vehicle id="E2W_148" type="ego_car" route="E2W" depart="920" departSpeed="10" departLane="best"/>
   <vehicle id="N2S_149" type="ego_car" route="N2S" depart="933" departSpeed="10" departLane="best"/>
   <vehicle id="S2N_150" type="ego_car" route="S2N" depart="934" departSpeed="10" departLane="best"/>
   <vehicle id="E2W_151" type="ego_car" route="E2W" depart="945" departSpeed="10" departLane="best"/>
   <vehicle id="N2S_152" type="ego_car" route="N2S" depart="949" departSpeed="10" departLane="best"/>
   <vehicle id="E2W_153" type="ego_car" route="E2W" depart="955" departSpeed="10" departLane="best"/>
   <vehicle id="S2N_154" type="ego_car" route="S2N" depart="959" departSpeed="10" departLane="best"/>
   <vehicle id="S2N_155" type="ego_car" route="S2N" depart="959" departSpeed="10" departLane="best"/>
   <vehicle id="N2S_156" type="ego_car" route="N2S" depart="959" departSpeed="10" departLane="best"/>
   <vehicle id="N2S_157" type="ego_car" route="N2S" depart="960" departSpeed="10" departLane="best"/>
   <vehicle id="S2N_158" type="ego_car" route="S2N" depart="961" departSpeed="10" departLane="best"/>
   <vehicle id="E2W_159" type="ego_car" route="E2W" depart="969" departSpeed="10" departLane="best"/>
   <vehicle id="S2N_160" type="ego_car" route="S2N" depart="969" departSpeed="10" departLane="best"/>
   <vehicle id="S2N_161" type="ego_car" route="S2N" depart="978" departSpeed="10" departLane="best"/>
   <vehicle id="E2W_162" type="ego_car" route="E2W" depart="980" departSpeed="10" departLane="best"/>
   <vehicle id="W2E_163" type="ego_car" route="W2E" depart="981" departSpeed="10" departLane="best"/>
   <vehicle id="N2S_164" type="ego_car" route="N2S" depart="982" departSpeed="10" departLane="best"/>
   <vehicle id="E2W_165" type="ego_car" route="E2W" depart="991" departSpeed="10" departLane="best"/>
   <vehicle id="E2W_166" type="ego_car" route="E2W" depart="992" departSpeed="10" departLane="best"/>
   <vehicle id="S2N_167" type="ego_car" route="S2N" depart="992" departSpeed="10" departLane="best"/>
   <vehicle id="W2E_168" type="ego_car" route="W2E" depart="1003" departSpeed="10" departLane="best"/>
   <vehicle id="W2E_169" type="ego_car" route="W2E" depart="1006" departSpeed="10" departLane="best"/>
   <vehicle id="S2N_170" type="ego_car" route="S2N" depart="1007" departSpeed="10" departLane="best"/>
   <vehicle id="W2E_171" type="ego_car" route="W2E" depart="1013" departSpeed="10" departLane="best"/>
   <vehicle id="N2S_172" type="ego_car" route="N2S" depart="1030" departSpeed="10" departLane="best"/>
   <vehicle id="E2W_173" type="ego_car" route="E2W" depart="1044" departSpeed="10" departLane="best"/>
   <vehicle id="E2W_174" type="ego_car" route="E2W" depart="1048" departSpeed="10" departLane="best"/>
   <vehicle id="N2S_175" type="ego_car" route="N2S" depart="1049" departSpeed="10" departLane="best"/>
   <vehicle id="S2N_176" type="ego_car" route="S2N" depart="1052" departSpeed="10" departLane="best"/>
   <vehicle id="N2S_177" type="ego_car" route="N2S" depart="1053" departSpeed="10" departLane="best"/>
   <vehicle id="W2E_178" type="ego_car" route="W2E" depart="1056" departSpeed="10" departLane="best"/>
   <vehicle id="E2W_179" type="ego_car" route="E2W" depart="1057" departSpeed="10" departLane="best"/>
   <vehicle id="W2E_180" type="ego_car" route="W2E" depart="1060" departSpeed="10" departLane="best"/>
   <vehicle id="E2W_181" type="ego_car" route="E2W" depart="1061" departSpeed="10" departLane="best"/>
   <vehicle id="N2S_182" type="ego_car" route="N2S" depart="1064" departSpeed="10" departLane="best"/>
   <vehicle id="S2N_183" type="ego_car" route="S2N" depart="1065" departSpeed="10" departLane="best"/>
   <vehicle id="W2E_184" type="ego_car" route="W2E" depart="1067" departSpeed="10" departLane="best"/>
   <vehicle id="W2E_185" type="ego_car" route="W2E" depart="1067" departSpeed="10" departLane="best"/>
   <vehicle id="E2W_186" type="ego_car" route="E2W" depart="1069" departSpeed="10" departLane="best"/>
   <vehicle id="S2N_187" type="ego_car" route="S2N" depart="1075" departSpeed="10" departLane="best"/>
   <vehicle id="W2E_188" type="ego_car" route="W2E" depart="1077" departSpeed="10" departLane="best"/>
   <vehicle id="E2W_189" type="ego_car" route="E2W" depart="1078" departSpeed="10" departLane="best"/>
   <vehicle id="W2E_190" type="ego_car" route="W2E" depart="1094" departSpeed="10" departLane="best"/>
   <vehicle id="N2S_191" type="ego_car" route="N2S" depart="1097" departSpeed="10" departLane="best"/>
   <vehicle id="E2W_192" type="ego_car" route="E2W" depart="1098" departSpeed="10" departLane="best"/>
   <vehicle id="N2S_193" type="ego_car" route="N2S" depart="1098" departSpeed="10" departLane="best"/>
   <vehicle id="E2W_194" type="ego_car" route="E2W" depart="1101" departSpeed="10" departLane="best"/>
   <vehicle id="S2N_195" type="ego_car" route="S2N" depart="1104" departSpeed="10" departLane="best"/>
   <vehicle id="S2N_196" type="ego_car" route="S2N" depart="1111" departSpeed="10" departLane="best"/>
   <vehicle id="N2S_197" type="ego_car" route="N2S" depart="1113" departSpeed="10" departLane="best"/>
   <vehicle id="N2S_198" type="ego_car" route="N2S" depart="1117" departSpeed="10" departLane="best"/>
   <vehicle id="S2N_199" type="ego_car" route="S2N" depart="1119" departSpeed="10" departLane="best"/>
   <vehicle id="S2N_200" type="ego_car" route="S2N" depart="1135" departSpeed="10" departLane="best"/>
   <vehicle id="E2W_201" type="ego_car" route="E2W" depart="1136" departSpeed="10" departLane="best"/>
   <vehicle id="S2N_202" type="ego_car" route="S2N" depart="1136" departSpeed="10" departLane="best"/>
   <vehicle id="N2S_203" type="ego_car" route="N2S" depart="1138" departSpeed="10" departLane="best"/>
   <vehicle id="S2N_204" type="ego_car" route="S2N" depart="1139" departSpeed="10" departLane="best"/>
   <vehicle id="N2S_205" type="ego_car" route="N2S" depart="1148" departSpeed="10" departLane="best"/>
   <vehicle id="W2E_206" type="ego_car" route="W2E" depart="1152" departSpeed="10" departLane="best"/>
   <vehicle id="N2S_207" type="ego_car" route="N2S" depart="1160" departSpeed="10" departLane="best"/>
   <vehicle id="E2W_208" type="ego_car" route="E2W" depart="1171" departSpeed="10" departLane="best"/>
   <vehicle id="W2E_209" type="ego_car" route="W2E" depart="1173" departSpeed="10" departLane="best"/>
   <vehicle id="E2W_210" type="ego_car" route="E2W" depart="1173" departSpeed="10" departLane="best"/>
   <vehicle id="N2S_211" type="ego_car" route="N2S" depart="1178" departSpeed="10" departLane="best"/>
   <vehicle id="N2S_212" type="ego_car" route="N2S" depart="1180" departSpeed="10" departLane="best"/>
   <vehicle id="E2W_213" type="ego_car" route="E2W" depart="1182" departSpeed="10" departLane="best"/>
   <vehicle id="W2E_214" type="ego_car" route="W2E" depart="1187" departSpeed="10" departLane="best"/>
   <vehicle id="W2E_215" type="ego_car" route="W2E" depart="1200" departSpeed="10" departLane="best"/>
   <vehicle id="N2S_216" type="ego_car" route="N2S" depart="1206" departSpeed="10" departLane="best"/>
   <vehicle id="W2E_217" type="ego_car" route="W2E" depart="1207" departSpeed="10" departLane="best"/>
   <vehicle id="W2E_218" type="ego_car" route="W2E" depart="1213" departSpeed="10" departLane="best"/>
   <vehicle id="N2S_219" type="ego_car" route="N2S" depart="1214" departSpeed="10" departLane="best"/>
   <vehicle id="W2E_220" type="ego_car" route="W2E" depart="1219" departSpeed="10" departLane="best"/>
   <vehicle id="E2W_221" type="ego_car" route="E2W" depart="1219" departSpeed="10" departLane="best"/>
   <vehicle id="E2W_222" type="ego_car" route="E2W" depart="1220" departSpeed="10" departLane="best"/>
   <vehicle id="S2N_223" type="ego_car" route="S2N" depart="1222" departSpeed="10" departLane="best"/>
   <vehicle id="S2N_224" type="ego_car" route="S2N" depart="1226" departSpeed="10" departLane="best"/>
   <vehicle id="E2W_225" type="ego_car" route="E2W" depart="1229" departSpeed="10" departLane="best"/>
   <vehicle id="E2W_226" type="ego_car" route="E2W" depart="1232" departSpeed="10" departLane="best"/>
   <vehicle id="S2N_227" type="ego_car" route="S2N" depart="1233" departSpeed="10" departLane="best"/>
   <vehicle id="E2W_228" type="ego_car" route="E2W" depart="1238" departSpeed="10" departLane="best"/>
   <vehicle id="N2S_229" type="ego_car" route="N2S" depart="1239" departSpeed="10" departLane="best"/>
   <vehicle id="S2N_230" type="ego_car" route="S2N" depart="1243" departSpeed="10" departLane="best"/>
   <vehicle id="S2N_231" type="ego_car" route="S2N" depart="1246" departSpeed="10" departLane="best"/>
   <vehicle id="E2W_232" type="ego_car" route="E2W" depart="1256" departSpeed="10" departLane="best"/>
   <vehicle id="E2W_233" type="ego_car" route="E2W" depart="1256" departSpeed="10" departLane="best"/>
   <vehicle id="S2N_234" type="ego_car" route="S2N" depart="1256" departSpeed="10" departLane="best"/>
   <vehicle id="W2E_235" type="ego_car" route="W2E" depart="1279" departSpeed="10" departLane="best"/>
   <vehicle id="N2S_236" type="ego_car" route="N2S" depart="1280" departSpeed="10" departLane="best"/>
   <vehicle id="W2E_237" type="ego_car" route="W2E" depart="1283" departSpeed="10" departLane="best"/>
   <vehicle id="W2E_238" type="ego_car" route="W2E" depart="1285" departSpeed="10" departLane="best"/>
   <vehicle id="W2E_239" type="ego_car" route="W2E" depart="1286" departSpeed="10" departLane="best"/>
   <vehicle id="E2W_240" type="ego_car" route="E2W" depart="1294" departSpeed="10" departLane="best"/>
   <vehicle id="N2S_241" type="ego_car" route="N2S" depart="1297" departSpeed="10" departLane="best"/>
   <vehicle id="S2N_242" type="ego_car" route="S2N" depart="1301" departSpeed="10" departLane="best"/>
   <vehicle id="W2E_243" type="ego_car" route="W2E" depart="1315" departSpeed="10" departLane="best"/>
   <vehicle id="W2E_244" type="ego_car" route="W2E" depart="1315" departSpeed="10" departLane="best"/>
   <vehicle id="S2N_245" type="ego_car" route="S2N" depart="1327" departSpeed="10" departLane="best"/>
   <vehicle id="S2N_246" type="ego_car" route="S2N" depart="1331" departSpeed="10" departLane="best"/>
   <vehicle id="N2S_247" type="ego_car" route="N2S" depart="1336" departSpeed="10" departLane="best"/>
   <vehicle id="W2E_248" type="ego_car" route="W2E" depart="1342" departSpeed="10" departLane="best"/>
   <vehicle id="W2E_249" type="ego_car" route="W2E" depart="1344" departSpeed="10" departLane="best"/>
   <vehicle id="N2S_250" type="ego_car" route="N2S" depart="1358" departSpeed="10" departLane="best"/>
   <vehicle id="W2E_251" type="ego_car" route="W2E" depart="1365" departSpeed="10" departLane="best"/>
   <vehicle id="S2N_252" type="ego_car" route="S2N" depart="1373" departSpeed="10" departLane="best"/>
   <vehicle id="S2N_253" type="ego_car" route="S2N" depart="1375" departSpeed="10" departLane="best"/>
   <vehicle id="E2W_254" type="ego_car" route="E2W" depart="1381" departSpeed="10" departLane="best"/>
   <vehicle id="E2W_255" type="ego_car" route="E2W" depart="1383" departSpeed="10" departLane="best"/>
   <vehicle id="E2W_256" type="ego_car" route="E2W" depart="1384" departSpeed="10" departLane="best"/>
   <vehicle id="E2W_257" type="ego_car" route="E2W" depart="1385" departSpeed="10" departLane="best"/>
   <vehicle id="E2W_258" type="ego_car" route="E2W" depart="1402" departSpeed="10" departLane="best"/>
   <vehicle id="N2S_259" type="ego_car" route="N2S" depart="1409" departSpeed="10" departLane="best"/>
   <vehicle id="E2W_260" type="ego_car" route="E2W" depart="1410" departSpeed="10" departLane="best"/>
   <vehicle id="N2S_261" type="ego_car" route="N2S" depart="1414" departSpeed="10" departLane="best"/>
   <vehicle id="W2E_262" type="ego_car" route="W2E" depart="1420" departSpeed="10" departLane="best"/>
   <vehicle id="E2W_263" type="ego_car" route="E2W" depart="1429" departSpeed="10" departLane="best"/>
   <vehicle id="W2E_264" type="ego_car" route="W2E" depart="1441" departSpeed="10" departLane="best"/>
   <vehicle id="E2W_265" type="ego_car" route="E2W" depart="1454" departSpeed="10" departLane="best"/>
   <vehicle id="E2W_266" type="ego_car" route="E2W" depart="1455" departSpeed="10" departLane="best"/>
   <vehicle id="W2E_267" type="ego_car" route="W2E" depart="1476" departSpeed="10" departLane="best"/>
   <vehicle id="E2W_268" type="ego_car" route="E2W" depart="1476" departSpeed="10" departLane="best"/>
   <vehicle id="S2N_269" type="ego_car" route="S2N" depart="1479" departSpeed="10" departLane="best"/>
   <vehicle id="S2N_270" type="ego_car" route="S2N" depart="1489" departSpeed="10" departLane="best"/>
   <vehicle id="W2E_271" type="ego_car" route="W2E" depart="1508" departSpeed="10" departLane="best"/>
   <vehicle id="E2W_272" type="ego_car" route="E2W" depart="1516" departSpeed="10" departLane="best"/>
   <vehicle id="W2E_273" type="ego_car" route="W2E" depart="1517" departSpeed="10" departLane="best"/>
   <vehicle id="N2S_274" type="ego_car" route="N2S" depart="1524" departSpeed="10" departLane="best"/>
   <vehicle id="N2S_275" type="ego_car" route="N2S" depart="1526" departSpeed="10" departLane="best"/>
   <vehicle id="N2S_276" type="ego_car" route="N2S" depart="1534" departSpeed="10" departLane="best"/>
   <vehicle id="E2W_277" type="ego_car" route="E2W" depart="1536" departSpeed="10" departLane="best"/>
   <vehicle id="S2N_278" type="ego_car" route="S2N" depart="1537" departSpeed="10" departLane="best"/>
   <vehicle id="N2S_279" type="ego_car" route="N2S" depart="1541" departSpeed="10" departLane="best"/>
   <vehicle id="W2E_280" type="ego_car" route="W2E" depart="1550" departSpeed="10" departLane="best"/>
   <vehicle id="E2W_281" type="ego_car" route="E2W" depart="1565" departSpeed="10" departLane="best"/>
   <vehicle id="S2N_282" type="ego_car" route="S2N" depart="1569" departSpeed="10" departLane="best"/>
   <vehicle id="S2N_283" type="ego_car" route="S2N" depart="1575" departSpeed="10" departLane="best"/>
   <vehicle id="E2W_284" type="ego_car" route="E2W" depart="1575" departSpeed="10" departLane="best"/>
   <vehicle id="E2W_285" type="ego_car" route="E2W" depart="1578" departSpeed="10" departLane="best"/>
   <vehicle id="E2W_286" type="ego_car" route="E2W" depart="1579" departSpeed="10" departLane="best"/>
   <vehicle id="W2E_287" type="ego_car" route="W2E" depart="1582" departSpeed="10" departLane="best"/>
   <vehicle id="N2S_288" type="ego_car" route="N2S" depart="1586" departSpeed="10" departLane="best"/>
   <vehicle id="E2W_289" type="ego_car" route="E2W" depart="1590" departSpeed="10" departLane="best"/>
   <vehicle id="N2S_290" type="ego_car" route="N2S" depart="1594" departSpeed="10" departLane="best"/>