<routes>

        <vType id = 'ego_car' vclass="evehicle" emissionClass="Energy" tau="1.5" accel="3.0" decel="3.0" color="#00FFFF" sigma="0.2" length="4.90" minGap="1.0" maxSpeed="20" carFollowing="IDM" guiShape="passenger"/>

        <route id="N2S" edges="NS -SN"/>
        <route id="S2N" edges="SN -NS"/>
        <route id="W2E" edges="WE -EW"/>
        <route id="E2W" edges="EW -WE"/>
   <vehicle id="W2E_1" type="ego_car" route="W2E" depart="40" departSpeed="10" departLane="best"/>
   <vehicle id="E2W_2" type="ego_car" route="E2W" depart="62" departSpeed="10" departLane="best"/>
   <vehicle id="E2W_3" type="ego_car" route="E2W" depart="71" departSpeed="10" departLane="best"/>
   <vehicle id="N2S_4" type="ego_car" route="N2S" depart="84" departSpeed="10" departLane="best"/>
   <vehicle id="W2E_5" type="ego_car" route="W2E" depart="91" departSpeed="10" departLane="best"/>
   <vehicle id="W2E_6" type="ego_car" route="W2E" depart="100" departSpeed="10" departLane="best"/>
   <vehicle id="W2E_7" type="ego_car" route="W2E" depart="115" departSpeed="10" departLane="best"/>
   <vehicle id="S2N_8" type="ego_car" route="S2N" depart="122" departSpeed="10" departLane="best"/>
   <vehicle id="E2W_9" type="ego_car" route="E2W" depart="125" departSpeed="10" departLane="best"/>
   <vehicle id="E2W_10" type="ego_car" route="E2W" depart="131" departSpeed="10" departLane="best"/>
   <vehicle id="E2W_11" type="ego_car" route="E2W" depart="142" departSpeed="10" departLane="best"/>
   <vehicle id="E2W_12" type="ego_car" route="E2W" depart="156" departSpeed="10" departLane="best"/>
   <vehicle id="E2W_13" type="ego_car" route="E2W" depart="169" departSpeed="10" departLane="best"/>
   <vehicle id="W2E_14" type="ego_car" route="W2E" depart="214" departSpeed="10" departLane="best"/>
   <vehicle id="W2E_15" type="ego_car" route="W2E" depart="228" departSpeed="10" departLane="best"/>
   <vehicle id="E2W_16" type="ego_car" route="E2W" depart="229" departSpeed="10" departLane="best"/>
   <vehicle id="E2W_17" type="ego_car" route="E2W" depart="255" departSpeed="10" departLane="best"/>
   <vehicle id="W2E_18" type="ego_car" route="W2E" depart="266" departSpeed="10" departLane="best"/>
   <vehicle id="W2E_19" type="ego_car" route="W2E" depart="296" departSpeed="10" departLane="best"/>
   <vehicle id="W2E_20" type="ego_car" route="W2E" depart="303" departSpeed="10" departLane="best"/>
   <vehicle id="N2S_21" type="ego_car" route="N2S" depart="309" departSpeed="10" departLane="best"/>
   <vehicle id="N2S_22" type="ego_car" route="N2S" depart="313" departSpeed="10" departLane="best"/>
   <vehicle id="E2W_23" type="ego_car" route="E2W" depart="315" departSpeed="10" departLane="best"/>
   <vehicle id="E2W_24" type="ego_car" route="E2W" depart="330" departSpeed="10" departLane="best"/>
   <vehicle id="E2W_25" type="ego_car" route="E2W" depart="333" departSpeed="10" departLane="best"/>
   <vehicle id="S2N_26" type="ego_car" route="S2N" depart="344" departSpeed="10" departLane="best"/>
   <vehicle id="E2W_27" type="ego_car" route="E2W" depart="347" departSpeed="10" departLane="best"/>
   <vehicle id="N2S_28" type="ego_car" route="N2S" depart="356" departSpeed="10" departLane="best"/>
   <vehicle id="N2S_29" type="ego_car" route="N2S" depart="361" departSpeed="10" departLane="best"/>
   <vehicle id="N2S_30" type="ego_car" route="N2S" depart="364" departSpeed="10" departLane="best"/>
   <vehicle id="W2E_31" type="ego_car" route="W2E" depart="389" departSpeed="10" departLane="best"/>
   <vehicle id="N2S_32" type="ego_car" route="N2S" depart="392" departSpeed="10" departLane="best"/>
   <vehicle id="S2N_33" type="ego_car" route="S2N" depart="393" departSpeed="10" departLane="best"/>
   <vehicle id="W2E_34" type="ego_car" route="W2E" depart="415" departSpeed="10" departLane="best"/>
   <vehicle id="W2E_35" type="ego_car" route="W2E" depart="429" departSpeed="10" departLane="best"/>
   <vehicle id="N2S_36" type="ego_car" route="N2S" depart="433" departSpeed="10" departLane="best"/>
   <vehicle id="E2W_37" type="ego_car" route="E2W" depart="436" departSpeed="10" departLane="best"/>
   <vehicle id="N2S_38" type="ego_car" route="N2S" depart="444" departSpeed="10" departLane="best"/>
   <vehicle id="S2N_39" type="ego_car" route="S2N" depart="453" departSpeed="10" departLane="best"/>
   <vehicle id="W2E_40" type="ego_car" route="W2E" depart="466" departSpeed="10" departLane="best"/>
   <vehicle id="S2N_41" type="ego_car" route="S2N" depart="468" departSpeed="10" departLane="best"/>
   <vehicle id="W2E_42" type="ego_car" route="W2E" depart="472" departSpeed="10" departLane="best"/>
   <vehicle id="W2E_43" type="ego_car" route="W2E" depart="481" departSpeed="10" departLane="best"/>
   <vehicle id="E2W_44" type="ego_car" route="E2W" depart="491" departSpeed="10" departLane="best"/>
   <vehicle id="W2E_45" type="ego_car" route="W2E" depart="515" departSpeed="10" departLane="best"/>
   <vehicle id="W2E_46" type="ego_car" route="W2E" depart="525" departSpeed="10" departLane="best"/>
   <vehicle id="W2E_47" type="ego_car" route="W2E" depart="527" departSpeed="10" departLane="best"/>
   <vehicle id="S2N_48" type="ego_car" route="S2N" depart="546" departSpeed="10" departLane="best"/>
   <vehicle id="N2S_49" type="ego_car" route="N2S" depart="548" departSpeed="10" departLane="best"/>
   <vehicle id="W2E_50" type="ego_car" route="W2E" depart="551" departSpeed="10" departLane="best"/>
   <vehicle id="S2N_51" type="ego_car" route="S2N" depart="559" departSpeed="10" departLane="best"/>
   <vehicle id="N2S_52" type="ego_car" route="N2S" depart="562" departSpeed="10" departLane="best"/>
   <vehicle id="E2W_53" type="ego_car" route="E2W" depart="564" departSpeed="10" departLane="best"/>
   <vehicle id="N2S_54" type="ego_car" route="N2S" depart="567" departSpeed="10" departLane="best"/>
   <vehicle id="W2E_55" type="ego_car" route="W2E" depart="574" departSpeed="10" departLane="best"/>
   <vehicle id="E2W_56" type="ego_car" route="E2W" depart="602" departSpeed="10" departLane="best"/>
   <vehicle id="E2W_57" type="ego_car" route="E2W" depart="605" departSpeed="10" departLane="best"/>
   <vehicle id="E2W_58" type="ego_car" route="E2W" depart="621" departSpeed="10" departLane="best"/>
   <vehicle id="E2W_59" type="ego_car" route="E2W" depart="621" departSpeed="10" departLane="best"/>
   <vehicle id="N2S_60" type="ego_car" route="N2S" depart="633" departSpeed="10" departLane="best"/>
   <vehicle id="E2W_61" type="ego_car" route="E2W" depart="633" departSpeed="10" departLane="best"/>
   <vehicle id="N2S_62" type="ego_car" route="N2S" depart="634" departSpeed="10" departLane="best"/>
   <vehicle id="E2W_63" type="ego_car" route="E2W" depart="641" departSpeed="10" departLane="best"/>
   <vehicle id="S2N_64" type="ego_car" route="S2N" depart="645" departSpeed="10" departLane="best"/>
   <vehicle id="E2W_65" type="ego_car" route="E2W" depart="645" departSpeed="10" departLane="best"/>
   <vehicle id="E2W_66" type="ego_car" route="E2W" depart="650" departSpeed="10" departLane="best"/>
   <vehicle id="S2N_67" type="ego_car" route="S2N" depart="651" departSpeed="10" departLane="best"/>
   <vehicle id="W2E_68" type="ego_car" route="W2E" depart="657" departSpeed="10" departLane="best"/>
   <vehicle id="W2E_69" type="ego_car" route="W2E" depart="668" departSpeed="10" departLane="best"/>
   <vehicle id="E2W_70" type="ego_car" route="E2W" depart="670" departSpeed="10" departLane="best"/>
   <vehicle id="S2N_71" type="ego_car" route="S2N" depart="672" departSpeed="10" departLane="best"/>
   <vehicle id="W2E_72" type="ego_car" route="W2E" depart="694" departSpeed="10" departLane="best"/>
   <vehicle id="W2E_73" type="ego_car" route="W2E" depart="694" departSpeed="10" departLane="best"/>
   <vehicle id="S2N_74" type="ego_car" route="S2N" depart="697" departSpeed="10" departLane="best"/>
   <vehicle id="N2S_75" type="ego_car" route="N2S" depart="697" departSpeed="10" departLane="best"/>
   <vehicle id="W2E_76" type="ego_car" route="W2E" depart="698" departSpeed="10" departLane="best"/>
   <vehicle id="E2W_77" type="ego_car" route="E2W" depart="698" departSpeed="10" departLane="best"/>
   <vehicle id="E2W_78" type="ego_car" route="E2W" depart="704" departSpeed="10" departLane="best"/>
   <vehicle id="W2E_79" type="ego_car" route="W2E" depart="709" departSpeed="10" departLane="best"/>
   <vehicle id="S2N_80" type="ego_car" route="S2N" depart="719" departSpeed="10" departLane="best"/>
   <vehicle id="E2W_81" type="ego_car" route="E2W" depart="724" departSpeed="10" departLane="best"/>
   <vehicle id="W2E_82" type="ego_car" route="W2E" depart="728" departSpeed="10" departLane="best"/>
   <vehicle id="S2N_83" type="ego_car" route="S2N" depart="731" departSpeed="10" departLane="best"/>
   <vehicle id="S2N_84" type="ego_car" route="S2N" depart="732" departSpeed="10" departLane="best"/>
   <vehicle id="W2E_85" type="ego_car" route="W2E" depart="744" departSpeed="10" departLane="best"/>
   <vehicle id="E2W_86" type="ego_car" route="E2W" depart="779" departSpeed="10" departLane="best"/>
   <vehicle id="S2N_87" type="ego_car" route="S2N" depart="780" departSpeed="10" departLane="best"/>
   <vehicle id="W2E_88" type="ego_car" route="W2E" depart="781" departSpeed="10" departLane="best"/>
   <vehicle id="S2N_89" type="ego_car" route="S2N" depart="782" departSpeed="10" departLane="best"/>
   <vehicle id="E2W_90" type="ego_car" route="E2W" depart="788" departSpeed="10" departLane="best"/>
   <vehicle id="N2S_91" type="ego_car" route="N2S" depart="794" departSpeed="10" departLane="best"/>
   <vehicle id="E2W_92" type="ego_car" route="E2W" depart="795" departSpeed="10" departLane="best"/>
   <vehicle id="W2E_93" type="ego_car" route="W2E" depart="798" departSpeed="10" departLane="best"/>
   <vehicle id="W2E_94" type="ego_car" route="W2E" depart="801" departSpeed="10" departLane="best"/>
   <vehicle id="E2W_95" type="ego_car" route="E2W" depart="801" departSpeed="10" departLane="best"/>
   <vehicle id="S2N_96" type="ego_car" route="S2N" depart="804" departSpeed="10" departLane="best"/>
   <vehicle id="S2N_97" type="ego_car" route="S2N" depart="817" departSpeed="10" departLane="best"/>
   <vehicle id="S2N_98" type="ego_car" route="S2N" depart="818" departSpeed="10" departLane="best"/>
   <vehicle id="E2W_99" type="ego_car" route="E2W" depart="819" departSpeed="10" departLane="best"/>
   <vehicle id="W2E_100" type="ego_car" route="W2E" depart="823" departSpeed="10" departLane="best"/>
   <vehicle id="W2E_101" type="ego_car" route="W2E" depart="833" departSpeed="10" departLane="best"/>
   <vehicle id="N2S_102" type="ego_car" route="N2S" depart="834" departSpeed="10" departLane="best"/>
   <vehicle id="W2E_103" type="ego_car" route="W2E" depart="835" departSpeed="10" departLane="best"/>
   <vehicle id="E2W_104" type="ego_car" route="E2W" depart="837" departSpeed="10" departLane="best"/>
   <vehicle id="N2S_105" type="ego_car" route="N2S" depart="838" departSpeed="10" departLane="best"/>
   <vehicle id="W2E_106" type="ego_car" route="W2E" depart="839" departSpeed="10" departLane="best"/>
   <vehicle id="E2W_107" type="ego_car" route="E2W" depart="852" departSpeed="10" departLane="best"/>
   <vehicle id="E2W_108" type="ego_car" route="E2W" depart="855" departSpeed="10" departLane="best"/>
   <vehicle id="S2N_109" type="ego_car" route="S2N" depart="861" departSpeed="10" departLane="best"/>
   <vehicle id="E2W_110" type="ego_car" route="E2W" depart="862" departSpeed="10" departLane="best"/>
   <vehicle id="E2W_111" type="ego_car" route="E2W" depart="868" departSpeed="10" departLane="best"/>
   <vehicle id="E2W_112" type="ego_car" route="E2W" depart="872" departSpeed="10" departLane="best"/>
   <vehicle id="W2E_113" type="ego_car" route="W2E" depart="882" departSpeed="10" departLane="best"/>
   <vehicle id="E2W_114" type="ego_car" route="E2W" depart="892" departSpeed="10" departLane="best"/>
   <vehicle id="S2N_115" type="ego_car" route="S2N" depart="894" departSpeed="10" departLane="best"/>
   <vehicle id="E2W_116" type="ego_car" route="E2W" depart="894" departSpeed="10" departLane="best"/>
   <vehicle id="N2S_117" type="ego_car" route="N2S" depart="901" departSpeed="10" departLane="best"/>
   <vehicle id="N2S_118" type="ego_car" route="N2S" depart="901" departSpeed="10" departLane="best"/>
   <vehicle id="W2E_119" type="ego_car" route="W2E" depart="903" departSpeed="10" departLane="best"/>
   <vehicle id="N2S_120" type="ego_car" route="N2S" depart="906" departSpeed="10" departLane="best"/>
   <vehicle id="E2W_121" type="ego_car" route="E2W" depart="911" departSpeed="10" departLane="best"/>
   <vehicle id="S2N_122" type="ego_car" route="S2N" depart="912" departSpeed="10" departLane="best"/>
   <vehicle id="W2E_123" type="ego_car" route="W2E" depart="916" departSpeed="10" departLane="best"/>
   <vehicle id="W2E_124" type="ego_car" route="W2E" depart="917" departSpeed="10" departLane="best"/>
   <vehicle id="E2W_125" type="ego_car" route="E2W" depart="922" departSpeed="10" departLane="best"/>
   <vehicle id="N2S_126" type="ego_car" route="N2S" depart="924" departSpeed="10" departLane="best"/>
   <vehicle id="N2S_127" type="ego_car" route="N2S" depart="927" departSpeed="10" departLane="best"/>
   <vehicle id="S2N_128" type="ego_car" route="S2N" depart="941" departSpeed="10" departLane="best"/>
   <vehicle id="W2E_129" type="ego_car" route="W2E" depart="941" departSpeed="10" departLane="best"/>
   <vehicle id="W2E_130" type="ego_car" route="W2E" depart="948" departSpeed="10" departLane="best"/>
   <vehicle id="N2S_131" type="ego_car" route="N2S" depart="949" departSpeed="10" departLane="best"/>
   <vehicle id="W2E_132" type="ego_car" route="W2E" depart="955" departSpeed="10" departLane="best"/>
   <vehicle id="E2W_133" type="ego_car" route="E2W" depart="955" departSpeed="10" departLane="best"/>
   <vehicle id="N2S_134" type="ego_car" route="N2S" depart="956" departSpeed="10" departLane="best"/>
   <vehicle id="E2W_135" type="ego_car" route="E2W" depart="958" departSpeed="10" departLane="best"/>
   <vehicle id="S2N_136" type="ego_car" route="S2N" depart="961" departSpeed="10" departLane="best"/>
   <vehicle id="S2N_137" type="ego_car" route="S2N" depart="963" departSpeed="10" departLane="best"/>
   <vehicle id="E2W_138" type="ego_car" route="E2W" depart="963" departSpeed="10" departLane="best"/>
   <vehicle id="S2N_139" type="ego_car" route="S2N" depart="964" departSpeed="10" departLane="best"/>
   <vehicle id="W2E_140" type="ego_car" route="W2E" depart="965" departSpeed="10" departLane="best"/>
   <vehicle id="E2W_141" type="ego_car" route="E2W" depart="965" departSpeed="10" departLane="best"/>
   <vehicle id="N2S_142" type="ego_car" route="N2S" depart="970" departSpeed="10" departLane="best"/>
   <vehicle id="S2N_143" type="ego_car" route="S2N" depart="983" departSpeed="10" departLane="best"/>
   <vehicle id="W2E_144" type="ego_car" route="W2E" depart="984" departSpeed="10" departLane="best"/>
   <vehicle id="S2N_145" type="ego_car" route="S2N" depart="986" departSpeed="10" departLane="best"/>
   <vehicle id="S2N_146" type="ego_car" route="S2N" depart="986" departSpeed="10" departLane="best"/>
   <vehicle id="W2E_147" type="ego_car" route="W2E" depart="992" departSpeed="10" departLane="best"/>
   <vehicle id="S2N_148" type="ego_car" route="S2N" depart="995" departSpeed="10" departLane="best"/>
   <vehicle id="E2W_149" type="ego_car" route="E2W" depart="996" departSpeed="10" departLane="best"/>
   <vehicle id="W2E_150" type="ego_car" route="W2E" depart="1004" departSpeed="10" departLane="best"/>
   <vehicle id="W2E_151" type="ego_car" route="W2E" depart="1010" departSpeed="10" departLane="best"/>
   <vehicle id="E2W_152" type="ego_car" route="E2W" depart="1010" departSpeed="10" departLane="best"/>
   <vehicle id="W2E_153" type="ego_car" route="W2E" depart="1011" departSpeed="10" departLane="best"/>
   <vehicle id="E2W_154" type="ego_car" route="E2W" depart="1012" departSpeed="10" departLane="best"/>
   <vehicle id="W2E_155" type="ego_car" route="W2E" depart="1016" departSpeed="10" departLane="best"/>
   <vehicle id="E2W_156" type="ego_car" route="E2W" depart="1022" departSpeed="10" departLane="best"/>
   <vehicle id="E2W_157" type="ego_car" route="E2W" depart="1031" departSpeed="10" departLane="best"/>
   <vehicle id="N2S_158" type="ego_car" route="N2S" depart="1038" departSpeed="10" departLane="best"/>
   <vehicle id="N2S_159" type="ego_car" route="N2S" depart="1049" departSpeed="10" departLane="best"/>
   <vehicle id="E2W_160" type="ego_car" route="E2W" depart="1049" departSpeed="10" departLane="best"/>
   <vehicle id="S2N_161" type="ego_car" route="S2N" depart="1052" departSpeed="10" departLane="best"/>
   <vehicle id="E2W_162" type="ego_car" route="E2W" depart="1057" departSpeed="10" departLane="best"/>
   <vehicle id="N2S_163" type="ego_car" route="N2S" depart="1063" departSpeed="10" departLane="best"/>
   <vehicle id="W2E_164" type="ego_car" route="W2E" depart="1064" departSpeed="10" departLane="best"/>
   <vehicle id="E2W_165" type="ego_car" route="E2W" depart="1064" departSpeed="10" departLane="best"/>
   <vehicle id="W2E_166" type="ego_car" route="W2E" depart="1066" departSpeed="10" departLane="best"/>
   <vehicle id="N2S_167" type="ego_car" route="N2S" depart="1069" departSpeed="10" departLane="best"/>
   <vehicle id="N2S_168" type="ego_car" route="N2S" depart="1070" departSpeed="10" departLane="best"/>
   <vehicle id="S2N_169" type="ego_car" route="S2N" depart="1079" departSpeed="10" departLane="best"/>
   <vehicle id="W2E_170" type="ego_car" route="W2E" depart="1087" departSpeed="10" departLane="best"/>
   <vehicle id="W2E_171" type="ego_car" route="W2E" depart="1091" departSpeed="10" departLane="best"/>
   <vehicle id="S2N_172" type="ego_car" route="S2N" depart="1092" departSpeed="10" departLane="best"/>
   <vehicle id="E2W_173" type="ego_car" route="E2W" depart="1097" departSpeed="10" departLane="best"/>
   <vehicle id="W2E_174" type="ego_car" route="W2E" depart="1098" departSpeed="10" departLane="best"/>
   <vehicle id="E2W_175" type="ego_car" route="E2W" depart="1102" departSpeed="10" departLane="best"/>
   <vehicle id="S2N_176" type="ego_car" route="S2N" depart="1103" departSpeed="10" departLane="best"/>
   <vehicle id="N2S_177" type="ego_car" route="N2S" depart="1106" departSpeed="10" departLane="best"/>
   <vehicle id="E2W_178" type="ego_car" route="E2W" depart="1110" departSpeed="10" departLane="best"/>
   <vehicle id="E2W_179" type="ego_car" route="E2W" depart="1115" departSpeed="10" departLane="best"/>
   <vehicle id="W2E_180" type="ego_car" route="W2E" depart="1120" departSpeed="10" departLane="best"/>
   <vehicle id="E2W_181" type="ego_car" route="E2W" depart="1132" departSpeed="10" departLane="best"/>
   <vehicle id="E2W_182" type="ego_car" route="E2W" depart="1133" departSpeed="10" departLane="best"/>
   <vehicle id="N2S_183" type="ego_car" route="N2S" depart="1135" departSpeed="10" departLane="best"/>
   <vehicle id="W2E_184" type="ego_car" route="W2E" depart="1137" departSpeed="10" departLane="best"/>
   <vehicle id="W2E_185" type="ego_car" route="W2E" depart="1141" departSpeed="10" departLane="best"/>
   <vehicle id="N2S_186" type="ego_car" route="N2S" depart="1147" departSpeed="10" departLane="best"/>
   <vehicle id="S2N_187" type="ego_car" route="S2N" depart="1153" departSpeed="10" departLane="best"/>
   <vehicle id="N2S_188" type="ego_car" route="N2S" depart="1160" departSpeed="10" departLane="best"/>
   <vehicle id="N2S_189" type="ego_car" route="N2S" depart="1171" departSpeed="10" departLane="best"/>
   <vehicle id="N2S_190" type="ego_car" route="N2S" depart="1176" departSpeed="10" departLane="best"/>
   <vehicle id="S2N_191" type="ego_car" route="S2N" depart="1178" departSpeed="10" departLane="best"/>
   <vehicle id="W2E_192" type="ego_car" route="W2E" depart="1179" departSpeed="10" departLane="best"/>
   <vehicle id="E2W_193" type="ego_car" route="E2W" depart="1181" departSpeed="10" departLane="best"/>
   <vehicle id="N2S_194" type="ego_car" route="N2S" depart="1182" departSpeed="10" departLane="best"/>
   <vehicle id="E2W_195" type="ego_car" route="E2W" depart="1190" departSpeed="10" departLane="best"/>
   <vehicle id="W2E_196" type="ego_car" route="W2E" depart="1191" departSpeed="10" departLane="best"/>
   <vehicle id="E2W_197" type="ego_car" route="E2W" depart="1193" departSpeed="10" departLane="best"/>
   <vehicle id="E2W_198" type="ego_car" route="E2W" depart="1196" departSpeed="10" departLane="best"/>
   <vehicle id="W2E_199" type="ego_car" route="W2E" depart="1200" departSpeed="10" departLane="best"/>
   <vehicle id="S2N_200" type="ego_car" route="S2N" depart="1204" departSpeed="10" departLane="best"/>
   <vehicle id="S2N_201" type="ego_car" route="S2N" depart="1209" departSpeed="10" departLane="best"/>
   <vehicle id="W2E_202" type="ego_car" route="W2E" depart="1219" departSpeed="10" departLane="best"/>
   <vehicle id="E2W_203" type="ego_car" route="E2W" depart="1219" departSpeed="10" departLane="best"/>
   <vehicle id="E2W_204" type="ego_car" route="E2W" depart="1221" departSpeed="10" departLane="best"/>
   <vehicle id="E2W_205" type="ego_car" route="E2W" depart="1223" departSpeed="10" departLane="best"/>
   <vehicle id="S2N_206" type="ego_car" route="S2N" depart="1225" departSpeed="10" departLane="best"/>
   <vehicle id="N2S_207" type="ego_car" route="N2S" depart="1229" departSpeed="10" departLane="best"/>
   <vehicle id="W2E_208" type="ego_car" route="W2E" depart="1229" departSpeed="10" departLane="best"/>
   <vehicle id="W2E_209" type="ego_car" route="W2E" depart="1229" departSpeed="10" departLane="best"/>
   <vehicle id="E2W_210" type="ego_car" route="E2W" depart="1231" departSpeed="10" departLane="best"/>
   <vehicle id="E2W_211" type="ego_car" route="E2W" depart="1233" departSpeed="10" departLane="best"/>
   <vehicle id="N2S_212" type="ego_car" route="N2S" depart="1235" departSpeed="10" departLane="best"/>
   <vehicle id="N2S_213" type="ego_car" route="N2S" depart="1237" departSpeed="10" departLane="best"/>
   <vehicle id="W2E_214" type="ego_car" route="W2E" depart="1238" departSpeed="10" departLane="best"/>
   <vehicle id="N2S_215" type="ego_car" route="N2S" depart="1252" departSpeed="10" departLane="best"/>
   <vehicle id="W2E_216" type="ego_car" route="W2E" depart="1258" departSpeed="10" departLane="best"/>
   <vehicle id="E2W_217" type="ego_car" route="E2W" depart="1260" departSpeed="10" departLane="best"/>
   <vehicle id="N2S_218" type="ego_car" route="N2S" depart="1267" departSpeed="10" departLane="best"/>
   <vehicle id="W2E_219" type="ego_car" route="W2E" depart="1280" departSpeed="10" departLane="best"/>
   <vehicle id="S2N_220" type="ego_car" route="S2N" depart="1284" departSpeed="10" departLane="best"/>
   <vehicle id="W2E_221" type="ego_car" route="W2E" depart="1287" departSpeed="10" departLane="best"/>
   <vehicle id="N2S_222" type="ego_car" route="N2S" depart="1293" departSpeed="10" departLane="best"/>
   <vehicle id="W2E_223" type="ego_car" route="W2E" depart="1296" departSpeed="10" departLane="best"/>
   <vehicle id="N2S_224" type="ego_car" route="N2S" depart="1303" departSpeed="10" departLane="best"/>
   <vehicle id="S2N_225" type="ego_car" route="S2N" depart="1307" departSpeed="10" departLane="best"/>
   <vehicle id="E2W_226" type="ego_car" route="E2W" depart="1308" departSpeed="10" departLane="best"/>
   <vehicle id="S2N_227" type="ego_car" route="S2N" depart="1309" departSpeed="10" departLane="best"/>
   <vehicle id="W2E_228" type="ego_car" route="W2E" depart="1310" departSpeed="10" departLane="best"/>
   <vehicle id="S2N_229" type="ego_car" route="S2N" depart="1314" departSpeed="10" departLane="best"/>
   <vehicle id="S2N_230" type="ego_car" route="S2N" depart="1317" departSpeed="10" departLane="best"/>
   <vehicle id="S2N_231" type="ego_car" route="S2N" depart="1330" departSpeed="10" departLane="best"/>
   <vehicle id="N2S_232" type="ego_car" route="N2S" depart="1341" departSpeed="10" departLane="best"/>
   <vehicle id="N2S_233" type="ego_car" route="N2S" depart="1342" departSpeed="10" departLane="best"/>
   <vehicle id="W2E_234" type="ego_car" route="W2E" depart="1351" departSpeed="10" departLane="best"/>
   <vehicle id="N2S_235" type="ego_car" route="N2S" depart="1353" departSpeed="10" departLane="best"/>
   <vehicle id="E2W_236" type="ego_car" route="E2W" depart="1362" departSpeed="10" departLane="best"/>
   <vehicle id="S2N_237" type="ego_car" route="S2N" depart="1367" departSpeed="10" departLane="best"/>
   <vehicle id="W2E_238" type="ego_car" route="W2E" depart="1370" departSpeed="10" departLane="best"/>
   <vehicle id="E2W_239" type="ego_car" route="E2W" depart="1379" departSpeed="10" departLane="best"/>
   <vehicle id="S2N_240" type="ego_car" route="S2N" depart="1383" departSpeed="10" departLane="best"/>
   <vehicle id="E2W_241" type="ego_car" route="E2W" depart="1384" departSpeed="10" departLane="best"/>
   <vehicle id="S2N_242" type="ego_car" route="S2N" depart="1391" departSpeed="10" departLane="best"/>
   <vehicle id="E2W_243" type="ego_car" route="E2W" depart="1392" departSpeed="10" departLane="best"/>
   <vehicle id="N2S_244" type="ego_car" route="N2S" depart="1414" departSpeed="10" departLane="best"/>
   <vehicle id="S2N_245" type="ego_car" route="S2N" depart="1414" departSpeed="10" departLane="best"/>
   <vehicle id="S2N_246" type="ego_car" route="S2N" depart="1415" departSpeed="10" departLane="best"/>
   <vehicle id="S2N_247" type="ego_car" route="S2N" depart="1415" departSpeed="10" departLane="best"/>
   <vehicle id="N2S_248" type="ego_car" route="N2S" depart="1425" departSpeed="10" departLane="best"/>
   <vehicle id="W2E_249" type="ego_car" route="W2E" depart="1426" departSpeed="10" departLane="best"/>
   <vehicle id="E2W_250" type="ego_car" route="E2W" depart="1431" departSpeed="10" departLane="best"/>
   <vehicle id="E2W_251" type="ego_car" route="E2W" depart="1434" departSpeed="10" departLane="best"/>
   <vehicle id="W2E_252" type="ego_car" route="W2E" depart="1437" departSpeed="10" departLane="best"/>
   <vehicle id="S2N_253" type="ego_car" route="S2N" depart="1445" departSpeed="10" departLane="best"/>
   <vehicle id="E2W_254" type="ego_car" route="E2W" depart="1445" departSpeed="10" departLane="best"/>
   <vehicle id="E2W_255" type="ego_car" route="E2W" depart="1446" departSpeed="10" departLane="best"/>
   <vehicle id="S2N_256" type="ego_car" route="S2N" depart="1449" departSpeed="10" departLane="best"/>
   <vehicle id="N2S_257" type="ego_car" route="N2S" depart="1460" departSpeed="10" departLane="best"/>
   <vehicle id="S2N_258" type="ego_car" route="S2N" depart="1460" departSpeed="10" departLane="best"/>
   <vehicle id="W2E_259" type="ego_car" route="W2E" depart="1475" departSpeed="10" departLane="best"/>
   <vehicle id="S2N_260" type="ego_car" route="S2N" depart="1478" departSpeed="10" departLane="best"/>
   <vehicle id="W2E_261" type="ego_car" route="W2E" depart="1479" departSpeed="10" departLane="best"/>
   <vehicle id="E2W_262" type="ego_car" route="E2W" depart="1485" departSpeed="10" departLane="best"/>
   <vehicle id="N2S_263" type="ego_car" route="N2S" depart="1492" departSpeed="10" departLane="best"/>
   <vehicle id="E2W_264" type="ego_car" route="E2W" depart="1492" departSpeed="10" departLane="best"/>
   <vehicle id="E2W_265" type="ego_car" route="E2W" depart="1495" departSpeed="10" departLane="best"/>
   <vehicle id="N2S_266" type="ego_car" route="N2S" depart="1496" departSpeed="10" departLane="best"/>
   <vehicle id="N2S_267" type="ego_car" route="N2S" depart="1502" departSpeed="10" departLane="best"/>
   <vehicle id="N2S_268" type="ego_car" route="N2S" depart="1507" departSpeed="10" departLane="best"/>
   <vehicle id="W2E_269" type="ego_car" route="W2E" depart="1516" departSpeed="10" departLane="best"/>
   <vehicle id="W2E_270" type="ego_car" route="W2E" depart="1522" departSpeed="10" departLane="best"/>
   <vehicle id="E2W_271" type="ego_car" route="E2W" depart="1524" departSpeed="10" departLane="best"/>
   <vehicle id="W2E_272" type="ego_car" route="W2E" depart="1533" departSpeed="10" departLane="best"/>
   <vehicle id="W2E_273" type="ego_car" route="W2E" depart="1547" departSpeed="10" departLane="best"/>
   <vehicle id="W2E_274" type="ego_car" route="W2E" depart="1547" departSpeed="10" departLane="best"/>
   <vehicle id="E2W_275" type="ego_car" route="E2W" depart="1561" departSpeed="10" departLane="best"/>
   <vehicle id="S2N_276" type="ego_car" route="S2N" depart="1565" departSpeed="10" departLane="best"/>
   <vehicle id="E2W_277" type="ego_car" route="E2W" depart="1568" departSpeed="10" departLane="best"/>
   <vehicle id="S2N_278" type="ego_car" route="S2N" depart="1574" departSpeed="10" departLane="best"/>
   <vehicle id="N2S_279" type="ego_car" route="N2S" depart="1583" departSpeed="10" departLane="best"/>
   <vehicle id="N2S_280" type="ego_car" route="N2S" depart="1584" departSpeed="10" departLane="best"/>
   <vehicle id="S2N_281" type="ego_car" route="S2N" depart="1584" departSpeed="10" departLane="best"/>
   <vehicle id="S2N_282" type="ego_car" route="S2N" depart="1587" departSpeed="10" departLane="best"/>
   <vehicle id="N2S_283" type="ego_car" route="N2S" depart="1590" departSpeed="10" departLane="best"/>
   <vehicle id="W2E_284" type="ego_car" route="W2E" depart="1610" departSpeed="10" departLane="best"/>
   <vehicle id="S2N_285" type="ego_car" route="S2N" depart="1611" departSpeed="10" departLane="best"/>
   <vehicle id="E2W_286" type="ego_car" route="E2W" depart="1619" departSpeed="10" departLane="best"/>
   <vehicle id="W2E_287" type="ego_car" route="W2E" depart="1622" departSpeed="10" departLane="best"/>
   <vehicle id="N2S_288" type="ego_car" route="N2S" depart="1624" departSpeed="10" departLane="best"/>
   <vehicle id="N2S_289" type="ego_car" route="N2S" depart="1625" departSpeed="10" departLane="best"/>
   <vehicle id="W2E_290" type="ego_car" route="W2E" depart="1649" departSpeed="10" departLane="best"/>