<routes>

        <vType id = 'ego_car' vclass="evehicle" emissionClass="Energy" tau="1.5" accel="3.0" decel="3.0" color="#00FFFF" sigma="0.2" length="4.90" minGap="1.0" maxSpeed="20" carFollowing="IDM" guiShape="passenger"/>

        <route id="N2S" edges="NS -SN"/>
        <route id="S2N" edges="SN -NS"/>
        <route id="W2E" edges="WE -EW"/>
        <route id="E2W" edges="EW -WE"/>
   <vehicle id="E2W_1" type="ego_car" route="E2W" depart="80" departSpeed="10" departLane="best"/>
   <vehicle id="N2S_2" type="ego_car" route="N2S" depart="107" departSpeed="10" departLane="best"/>
   <vehicle id="N2S_3" type="ego_car" route="N2S" depart="117" departSpeed="10" departLane="best"/>
   <vehicle id="E2W_4" type="ego_car" route="E2W" depart="133" departSpeed="10" departLane="best"/>
   <vehicle id="E2W_5" type="ego_car" route="E2W" depart="153" departSpeed="10" departLane="best"/>
   <vehicle id="E2W_6" type="ego_car" route="E2W" depart="164" departSpeed="10" departLane="best"/>
   <vehicle id="E2W_7" type="ego_car" route="E2W" depart="172" departSpeed="10" departLane="best"/>
   <vehicle id="E2W_8" type="ego_car" route="E2W" depart="185" departSpeed="10" departLane="best"/>
   <vehicle id="N2S_9" type="ego_car" route="N2S" depart="188" departSpeed="10" departLane="best"/>
   <vehicle id="W2E_10" type="ego_car" route="W2E" depart="204" departSpeed="10" departLane="best"/>
   <vehicle id="N2S_11" type="ego_car" route="N2S" depart="221" departSpeed="10" departLane="best"/>
   <vehicle id="N2S_12" type="ego_car" route="N2S" depart="222" departSpeed="10" departLane="best"/>
   <vehicle id="W2E_13" type="ego_car" route="W2E" depart="232" departSpeed="10" departLane="best"/>
   <vehicle id="S2N_14" type="ego_car" route="S2N" depart="247" departSpeed="10" departLane="best"/>
   <vehicle id="S2N_15" type="ego_car" route="S2N" depart="260" departSpeed="10" departLane="best"/>
   <vehicle id="W2E_16" type="ego_car" route="W2E" depart="260" departSpeed="10" departLane="best"/>
   <vehicle id="N2S_17" type="ego_car" route="N2S" depart="273" departSpeed="10" departLane="best"/>
   <vehicle id="E2W_18" type="ego_car" route="E2W" depart="273" departSpeed="10" departLane="best"/>
   <vehicle id="N2S_19" type="ego_car" route="N2S" depart="278" departSpeed="10" departLane="best"/>
   <vehicle id="N2S_20" type="ego_car" route="N2S" depart="282" departSpeed="10" departLane="best"/>
   <vehicle id="W2E_21" type="ego_car" route="W2E" depart="283" departSpeed="10" departLane="best"/>
   <vehicle id="S2N_22" type="ego_car" route="S2N" depart="292" departSpeed="10" departLane="best"/>
   <vehicle id="N2S_23" type="ego_car" route="N2S" depart="293" departSpeed="10" departLane="best"/>
   <vehicle id="N2S_24" type="ego_car" route="N2S" depart="337" departSpeed="10" departLane="best"/>
   <vehicle id="S2N_25" type="ego_car" route="S2N" depart="356" departSpeed="10" departLane="best"/>
   <vehicle id="S2N_26" type="ego_car" route="S2N" depart="359" departSpeed="10" departLane="best"/>
   <vehicle id="E2W_27" type="ego_car" route="E2W" depart="367" departSpeed="10" departLane="best"/>
   <vehicle id="E2W_28" type="ego_car" route="E2W" depart="376" departSpeed="10" departLane="best"/>
   <vehicle id="W2E_29" type="ego_car" route="W2E" depart="377" departSpeed="10" departLane="best"/>
   <vehicle id="E2W_30" type="ego_car" route="E2W" depart="377" departSpeed="10" departLane="best"/>
   <vehicle id="S2N_31" type="ego_car" route="S2N" depart="387" departSpeed="10" departLane="best"/>
   <vehicle id="W2E_32" type="ego_car" route="W2E" depart="387" departSpeed="10" departLane="best"/>
   <vehicle id="N2S_33" type="ego_car" route="N2S" depart="391" departSpeed="10" departLane="best"/>
   <vehicle id="W2E_34" type="ego_car" route="W2E" depart="394" departSpeed="10" departLane="best"/>
   <vehicle id="E2W_35" type="ego_car" route="E2W" depart="397" departSpeed="10" departLane="best"/>
   <vehicle id="W2E_36" type="ego_car" route="W2E" depart="399" departSpeed="10" departLane="best"/>
   <vehicle id="E2W_37" type="ego_car" route="E2W" depart="405" departSpeed="10" departLane="best"/>
   <vehicle id="W2E_38" type="ego_car" route="W2E" depart="406" departSpeed="10" departLane="best"/>
   <vehicle id="W2E_39" type="ego_car" route="W2E" depart="407" departSpeed="10" departLane="best"/>
   <vehicle id="E2W_40" type="ego_car" route="E2W" depart="407" departSpeed="10" departLane="best"/>
   <vehicle id="N2S_41" type="ego_car" route="N2S" depart="409" departSpeed="10" departLane="best"/>
   <vehicle id="W2E_42" type="ego_car" route="W2E" depart="417" departSpeed="10" departLane="best"/>
   <vehicle id="E2W_43" type="ego_car" route="E2W" depart="424" departSpeed="10" departLane="best"/>
   <vehicle id="W2E_44" type="ego_car" route="W2E" depart="443" departSpeed="10" departLane="best"/>
   <vehicle id="E2W_45" type="ego_car" route="E2W" depart="443" departSpeed="10" departLane="best"/>
   <vehicle id="N2S_46" type="ego_car" route="N2S" depart="455" departSpeed="10" departLane="best"/>
   <vehicle id="S2N_47" type="ego_car" route="S2N" depart="457" departSpeed="10" departLane="best"/>
   <vehicle id="W2E_48" type="ego_car" route="W2E" depart="463" departSpeed="10" departLane="best"/>
   <vehicle id="W2E_49" type="ego_car" route="W2E" depart="473" departSpeed="10" departLane="best"/>
   <vehicle id="S2N_50" type="ego_car" route="S2N" depart="481" departSpeed="10" departLane="best"/>
   <vehicle id="S2N_51" type="ego_car" route="S2N" depart="482" departSpeed="10" departLane="best"/>
   <vehicle id="N2S_52" type="ego_car" route="N2S" depart="489" departSpeed="10" departLane="best"/>
   <vehicle id="W2E_53" type="ego_car" route="W2E" depart="489" departSpeed="10" departLane="best"/>
   <vehicle id="S2N_54" type="ego_car" route="S2N" depart="491" departSpeed="10" departLane="best"/>
   <vehicle id="W2E_55" type="ego_car" route="W2E" depart="499" departSpeed="10" departLane="best"/>
   <vehicle id="S2N_56" type="ego_car" route="S2N" depart="522" departSpeed="10" departLane="best"/>
   <vehicle id="S2N_57" type="ego_car" route="S2N" depart="526" departSpeed="10" departLane="best"/>
   <vehicle id="N2S_58" type="ego_car" route="N2S" depart="530" departSpeed="10" departLane="best"/>
   <vehicle id="E2W_59" type="ego_car" route="E2W" depart="533" departSpeed="10" departLane="best"/>
   <vehicle id="W2E_60" type="ego_car" route="W2E" depart="534" departSpeed="10" departLane="best"/>
   <vehicle id="W2E_61" type="ego_car" route="W2E" depart="543" departSpeed="10" departLane="best"/>
   <vehicle id="N2S_62" type="ego_car" route="N2S" depart="544" departSpeed="10" departLane="best"/>
   <vehicle id="E2W_63" type="ego_car" route="E2W" depart="550" departSpeed="10" departLane="best"/>
   <vehicle id="W2E_64" type="ego_car" route="W2E" depart="554" departSpeed="10" departLane="best"/>
   <vehicle id="S2N_65" type="ego_car" route="S2N" depart="558" departSpeed="10" departLane="best"/>
   <vehicle id="W2E_66" type="ego_car" route="W2E" depart="559" departSpeed="10" departLane="best"/>
   <vehicle id="E2W_67" type="ego_car" route="E2W" depart="563" departSpeed="10" departLane="best"/>
   <vehicle id="N2S_68" type="ego_car" route="N2S" depart="566" departSpeed="10" departLane="best"/>
   <vehicle id="S2N_69" type="ego_car" route="S2N" depart="567" departSpeed="10" departLane="best"/>
   <vehicle id="N2S_70" type="ego_car" route="N2S" depart="567" departSpeed="10" departLane="best"/>
   <vehicle id="N2S_71" type="ego_car" route="N2S" depart="574" departSpeed="10" departLane="best"/>
   <vehicle id="S2N_72" type="ego_car" route="S2N" depart="578" departSpeed="10" departLane="best"/>
   <vehicle id="N2S_73" type="ego_car" route="N2S" depart="579" departSpeed="10" departLane="best"/>
   <vehicle id="E2W_74" type="ego_car" route="E2W" depart="582" departSpeed="10" departLane="best"/>
   <vehicle id="S2N_75" type="ego_car" route="S2N" depart="583" departSpeed="10" departLane="best"/>
   <vehicle id="N2S_76" type="ego_car" route="N2S" depart="591" departSpeed="10" departLane="best"/>
   <vehicle id="N2S_77" type="ego_car" route="N2S" depart="593" departSpeed="10" departLane="best"/>
   <vehicle id="E2W_78" type="ego_car" route="E2W" depart="599" departSpeed="10" departLane="best"/>
   <vehicle id="W2E_79" type="ego_car" route="W2E" depart="600" departSpeed="10" departLane="best"/>
   <vehicle id="N2S_80" type="ego_car" route="N2S" depart="606" departSpeed="10" departLane="best"/>
   <vehicle id="S2N_81" type="ego_car" route="S2N" depart="609" departSpeed="10" departLane="best"/>
   <vehicle id="E2W_82" type="ego_car" route="E2W" depart="609" departSpeed="10" departLane="best"/>
   <vehicle id="S2N_83" type="ego_car" route="S2N" depart="612" departSpeed="10" departLane="best"/>
   <vehicle id="N2S_84" type="ego_car" route="N2S" depart="619" departSpeed="10" departLane="best"/>
   <vehicle id="E2W_85" type="ego_car" route="E2W" depart="624" departSpeed="10" departLane="best"/>
   <vehicle id="S2N_86" type="ego_car" route="S2N" depart="628" departSpeed="10" departLane="best"/>
   <vehicle id="W2E_87" type="ego_car" route="W2E" depart="632" departSpeed="10" departLane="best"/>
   <vehicle id="S2N_88" type="ego_car" route="S2N" depart="637" departSpeed="10" departLane="best"/>
   <vehicle id="W2E_89" type="ego_car" route="W2E" depart="639" departSpeed="10" departLane="best"/>
   <vehicle id="N2S_90" type="ego_car" route="N2S" depart="649" departSpeed="10" departLane="best"/>
   <vehicle id="N2S_91" type="ego_car" route="N2S" depart="654" departSpeed="10" departLane="best"/>
   <vehicle id="S2N_92" type="ego_car" route="S2N" depart="656" departSpeed="10" departLane="best"/>
   <vehicle id="N2S_93" type="ego_car" route="N2S" depart="657" departSpeed="10" departLane="best"/>
   <vehicle id="W2E_94" type="ego_car" route="W2E" depart="658" departSpeed="10" departLane="best"/>
   <vehicle id="S2N_95" type="ego_car" route="S2N" depart="659" departSpeed="10" departLane="best"/>
   <vehicle id="S2N_96" type="ego_car" route="S2N" depart="660" departSpeed="10" departLane="best"/>
   <vehicle id="N2S_97" type="ego_car" route="N2S" depart="664" departSpeed="10" departLane="best"/>
   <vehicle id="W2E_98" type="ego_car" route="W2E" depart="666" departSpeed="10" departLane="best"/>
   <vehicle id="N2S_99" type="ego_car" route="N2S" depart="666" departSpeed="10" departLane="best"/>
   <vehicle id="N2S_100" type="ego_car" route="N2S" depart="671" departSpeed="10" departLane="best"/>
   <vehicle id="N2S_101" type="ego_car" route="N2S" depart="671" departSpeed="10" departLane="best"/>
   <vehicle id="S2N_102" type="ego_car" route="S2N" depart="675" departSpeed="10" departLane="best"/>
   <vehicle id="N2S_103" type="ego_car" route="N2S" depart="678" departSpeed="10" departLane="best"/>
   <vehicle id="S2N_104" type="ego_car" route="S2N" depart="679" departSpeed="10" departLane="best"/>
   <vehicle id="W2E_105" type="ego_car" route="W2E" depart="682" departSpeed="10" departLane="best"/>
   <vehicle id="W2E_106" type="ego_car" route="W2E" depart="685" departSpeed="10" departLane="best"/>
   <vehicle id="N2S_107" type="ego_car" route="N2S" depart="689" departSpeed="10" departLane="best"/>
   <vehicle id="N2S_108" type="ego_car" route="N2S" depart="692" departSpeed="10" departLane="best"/>
   <vehicle id="W2E_109" type="ego_car" route="W2E" depart="694" departSpeed="10" departLane="best"/>
   <vehicle id="N2S_110" type="ego_car" route="N2S" depart="695" departSpeed="10" departLane="best"/>
   <vehicle id="E2W_111" type="ego_car" route="E2W" depart="696" departSpeed="10" departLane="best"/>
   <vehicle id="S2N_112" type="ego_car" route="S2N" depart="696" departSpeed="10" departLane="best"/>
   <vehicle id="E2W_113" type="ego_car" route="E2W" depart="697" departSpeed="10" departLane="best"/>
   <vehicle id="W2E_114" type="ego_car" route="W2E" depart="707" departSpeed="10" departLane="best"/>
   <vehicle id="W2E_115" type="ego_car" route="W2E" depart="709" departSpeed="10" departLane="best"/>
   <vehicle id="W2E_116" type="ego_car" route="W2E" depart="712" departSpeed="10" departLane="best"/>
   <vehicle id="W2E_117" type="ego_car" route="W2E" depart="715" departSpeed="10" departLane="best"/>
   <vehicle id="W2E_118" type="ego_car" route="W2E" depart="717" departSpeed="10" departLane="best"/>
   <vehicle id="W2E_119" type="ego_car" route="W2E" depart="720" departSpeed="10" departLane="best"/>
   <vehicle id="S2N_120" type="ego_car" route="S2N" depart="735" departSpeed="10" departLane="best"/>
   <vehicle id="S2N_121" type="ego_car" route="S2N" depart="740" departSpeed="10" departLane="best"/>
   <vehicle id="E2W_122" type="ego_car" route="E2W" depart="742" departSpeed="10" departLane="best"/>
   <vehicle id="E2W_123" type="ego_car" route="E2W" depart="743" departSpeed="10" departLane="best"/>
   <vehicle id="E2W_124" type="ego_car" route="E2W" depart="743" departSpeed="10" departLane="best"/>
   <vehicle id="N2S_125" type="ego_car" route="N2S" depart="747" departSpeed="10" departLane="best"/>
   <vehicle id="N2S_126" type="ego_car" route="N2S" depart="747" departSpeed="10" departLane="best"/>
   <vehicle id="S2N_127" type="ego_car" route="S2N" depart="750" departSpeed="10" departLane="best"/>
   <vehicle id="W2E_128" type="ego_car" route="W2E" depart="754" departSpeed="10" departLane="best"/>
   <vehicle id="N2S_129" type="ego_car" route="N2S" depart="754" departSpeed="10" departLane="best"/>
   <vehicle id="W2E_130" type="ego_car" route="W2E" depart="762" departSpeed="10" departLane="best"/>
   <vehicle id="E2W_131" type="ego_car" route="E2W" depart="778" departSpeed="10" departLane="best"/>
   <vehicle id="W2E_132" type="ego_car" route="W2E" depart="784" departSpeed="10" departLane="best"/>
   <vehicle id="S2N_133" type="ego_car" route="S2N" depart="786" departSpeed="10" departLane="best"/>
   <vehicle id="N2S_134" type="ego_car" route="N2S" depart="792" departSpeed="10" departLane="best"/>
   <vehicle id="S2N_135" type="ego_car" route="S2N" depart="795" departSpeed="10" departLane="best"/>
   <vehicle id="N2S_136" type="ego_car" route="N2S" depart="798" departSpeed="10" departLane="best"/>
   <vehicle id="E2W_137" type="ego_car" route="E2W" depart="802" departSpeed="10" departLane="best"/>
   <vehicle id="S2N_138" type="ego_car" route="S2N" depart="803" departSpeed="10" departLane="best"/>
   <vehicle id="W2E_139" type="ego_car" route="W2E" depart="809" departSpeed="10" departLane="best"/>
   <vehicle id="S2N_140" type="ego_car" route="S2N" depart="811" departSpeed="10" departLane="best"/>
   <vehicle id="W2E_141" type="ego_car" route="W2E" depart="814" departSpeed="10" departLane="best"/>
   <vehicle id="W2E_142" type="ego_car" route="W2E" depart="817" departSpeed="10" departLane="best"/>
   <vehicle id="W2E_143" type="ego_car" route="W2E" depart="825" departSpeed="10" departLane="best"/>
   <vehicle id="N2S_144" type="ego_car" route="N2S" depart="833" departSpeed="10" departLane="best"/>
   <vehicle id="W2E_145" type="ego_car" route="W2E" depart="833" departSpeed="10" departLane="best"/>
   <vehicle id="N2S_146" type="ego_car" route="N2S" depart="839" departSpeed="10" departLane="best"/>
   <vehicle id="E2W_147" type="ego_car" route="E2W" depart="841" departSpeed="10" departLane="best"/>
   <vehicle id="S2N_148" type="ego_car" route="S2N" depart="852" departSpeed="10" departLane="best"/>
   <vehicle id="W2E_149" type="ego_car" route="W2E" depart="853" departSpeed="10" departLane="best"/>
   <vehicle id="N2S_150" type="ego_car" route="N2S" depart="861" departSpeed="10" departLane="best"/>
   <vehicle id="W2E_151" type="ego_car" route="W2E" depart="862" departSpeed="10" departLane="best"/>
   <vehicle id="S2N_152" type="ego_car" route="S2N" depart="868" departSpeed="10" departLane="best"/>
   <vehicle id="N2S_153" type="ego_car" route="N2S" depart="876" departSpeed="10" departLane="best"/>
   <vehicle id="S2N_154" type="ego_car" route="S2N" depart="881" departSpeed="10" departLane="best"/>
   <vehicle id="W2E_155" type="ego_car" route="W2E" depart="885" departSpeed="10" departLane="best"/>
   <vehicle id="S2N_156" type="ego_car" route="S2N" depart="889" departSpeed="10" departLane="best"/>
   <vehicle id="N2S_157" type="ego_car" route="N2S" depart="894" departSpeed="10" departLane="best"/>
   <vehicle id="W2E_158" type="ego_car" route="W2E" depart="897" departSpeed="10" departLane="best"/>
   <vehicle id="N2S_159" type="ego_car" route="N2S" depart="898" departSpeed="10" departLane="best"/>
   <vehicle id="W2E_160" type="ego_car" route="W2E" depart="904" departSpeed="10" departLane="best"/>
   <vehicle id="W2E_161" type="ego_car" route="W2E" depart="904" departSpeed="10" departLane="best"/>
   <vehicle id="W2E_162" type="ego_car" route="W2E" depart="911" departSpeed="10" departLane="best"/>
   <vehicle id="S2N_163" type="ego_car" route="S2N" depart="913" departSpeed="10" departLane="best"/>
   <vehicle id="E2W_164" type="ego_car" route="E2W" depart="916" departSpeed="10" departLane="best"/>
   <vehicle id="W2E_165" type="ego_car" route="W2E" depart="917" departSpeed="10" departLane="best"/>
   <vehicle id="N2S_166" type="ego_car" route="N2S" depart="918" departSpeed="10" departLane="best"/>
   <vehicle id="N2S_167" type="ego_car" route="N2S" depart="918" departSpeed="10" departLane="best"/>
   <vehicle id="N2S_168" type="ego_car" route="N2S" depart="929" departSpeed="10" departLane="best"/>
   <vehicle id="W2E_169" type="ego_car" route="W2E" depart="929" departSpeed="10" departLane="best"/>
   <vehicle id="S2N_170" type="ego_car" route="S2N" depart="932" departSpeed="10" departLane="best"/>
   <vehicle id="E2W_171" type="ego_car" route="E2W" depart="937" departSpeed="10" departLane="best"/>
   <vehicle id="S2N_172" type="ego_car" route="S2N" depart="942" departSpeed="10" departLane="best"/>
   <vehicle id="N2S_173" type="ego_car" route="N2S" depart="945" departSpeed="10" departLane="best"/>
   <vehicle id="E2W_174" type="ego_car" route="E2W" depart="949" departSpeed="10" departLane="best"/>
   <vehicle id="N2S_175" type="ego_car" route="N2S" depart="949" departSpeed="10" departLane="best"/>
   <vehicle id="W2E_176" type="ego_car" route="W2E" depart="955" departSpeed="10" departLane="best"/>
   <vehicle id="S2N_177" type="ego_car" route="S2N" depart="960" departSpeed="10" departLane="best"/>
   <vehicle id="S2N_178" type="ego_car" route="S2N" depart="966" departSpeed="10" departLane="best"/>
   <vehicle id="N2S_179" type="ego_car" route="N2S" depart="982" departSpeed="10" departLane="best"/>
   <vehicle id="W2E_180" type="ego_car" route="W2E" depart="982" departSpeed="10" departLane="best"/>
   <vehicle id="E2W_181" type="ego_car" route="E2W" depart="987" departSpeed="10" departLane="best"/>
   <vehicle id="S2N_182" type="ego_car" route="S2N" depart="992" departSpeed="10" departLane="best"/>
   <vehicle id="S2N_183" type="ego_car" route="S2N" depart="994" departSpeed="10" departLane="best"/>
   <vehicle id="S2N_184" type="ego_car" route="S2N" depart="994" departSpeed="10" departLane="best"/>
   <vehicle id="W2E_185" type="ego_car" route="W2E" depart="994" departSpeed="10" departLane="best"/>
   <vehicle id="W2E_186" type="ego_car" route="W2E" depart="996" departSpeed="10" departLane="best"/>
   <vehicle id="W2E_187" type="ego_car" route="W2E" depart="1004" departSpeed="10" departLane="best"/>
   <vehicle id="N2S_188" type="ego_car" route="N2S" depart="1009" departSpeed="10" departLane="best"/>
   <vehicle id="E2W_189" type="ego_car" route="E2W" depart="1011" departSpeed="10" departLane="best"/>
   <vehicle id="S2N_190" type="ego_car" route="S2N" depart="1014" departSpeed="10" departLane="best"/>
   <vehicle id="N2S_191" type="ego_car" route="N2S" depart="1016" departSpeed="10" departLane="best"/>
   <vehicle id="W2E_192" type="ego_car" route="W2E" depart="1016" departSpeed="10" departLane="best"/>
   <vehicle id="W2E_193" type="ego_car" route="W2E" depart="1017" departSpeed="10" departLane="best"/>
   <vehicle id="E2W_194" type="ego_car" route="E2W" depart="1024" departSpeed="10" departLane="best"/>
   <vehicle id="N2S_195" type="ego_car" route="N2S" depart="1030" departSpeed="10" departLane="best"/>
   <vehicle id="W2E_196" type="ego_car" route="W2E" depart="1037" departSpeed="10" departLane="best"/>
   <vehicle id="S2N_197" type="ego_car" route="S2N" depart="1039" departSpeed="10" departLane="best"/>
   <vehicle id="N2S_198" type="ego_car" route="N2S" depart="1041" departSpeed="10" departLane="best"/>
   <vehicle id="E2W_199" type="ego_car" route="E2W" depart="1056" departSpeed="10" departLane="best"/>
   <vehicle id="N2S_200" type="ego_car" route="N2S" depart="1059" departSpeed="10" departLane="best"/>
   <vehicle id="W2E_201" type="ego_car" route="W2E" depart="1067" departSpeed="10" departLane="best"/>
   <vehicle id="W2E_202" type="ego_car" route="W2E" depart="1071" departSpeed="10" departLane="best"/>
   <vehicle id="N2S_203" type="ego_car" route="N2S" depart="1076" departSpeed="10" departLane="best"/>
   <vehicle id="E2W_204" type="ego_car" route="E2W" depart="1079" departSpeed="10" departLane="best"/>
   <vehicle id="N2S_205" type="ego_car" route="N2S" depart="1082" departSpeed="10" departLane="best"/>
   <vehicle id="S2N_206" type="ego_car" route="S2N" depart="1086" departSpeed="10" departLane="best"/>
   <vehicle id="S2N_207" type="ego_car" route="S2N" depart="1087" departSpeed="10" departLane="best"/>
   <vehicle id="S2N_208" type="ego_car" route="S2N" depart="1090" departSpeed="10" departLane="best"/>
   <vehicle id="S2N_209" type="ego_car" route="S2N" depart="1096" departSpeed="10" departLane="best"/>
   <vehicle id="W2E_210" type="ego_car" route="W2E" depart="1097" departSpeed="10" departLane="best"/>
   <vehicle id="W2E_211" type="ego_car" route="W2E" depart="1100" departSpeed="10" departLane="best"/>
   <vehicle id="S2N_212" type="ego_car" route="S2N" depart="1103" departSpeed="10" departLane="best"/>
   <vehicle id="W2E_213" type="ego_car" route="W2E" depart="1103" departSpeed="10" departLane="best"/>
   <vehicle id="S2N_214" type="ego_car" route="S2N" depart="1104" departSpeed="10" departLane="best"/>
   <vehicle id="N2S_215" type="ego_car" route="N2S" depart="1112" departSpeed="10" departLane="best"/>
   <vehicle id="W2E_216" type="ego_car" route="W2E" depart="1114" departSpeed="10" departLane="best"/>
   <vehicle id="N2S_217" type="ego_car" route="N2S" depart="1117" departSpeed="10" departLane="best"/>
   <vehicle id="N2S_218" type="ego_car" route="N2S" depart="1119" departSpeed="10" departLane="best"/>
   <vehicle id="S2N_219" type="ego_car" route="S2N" depart="1121" departSpeed="10" departLane="best"/>
   <vehicle id="S2N_220" type="ego_car" route="S2N" depart="1122" departSpeed="10" departLane="best"/>
   <vehicle id="W2E_221" type="ego_car" route="W2E" depart="1124" departSpeed="10" departLane="best"/>
   <vehicle id="N2S_222" type="ego_car" route="N2S" depart="1126" departSpeed="10" departLane="best"/>
   <vehicle id="W2E_223" type="ego_car" route="W2E" depart="1127" departSpeed="10" departLane="best"/>
   <vehicle id="W2E_224" type="ego_car" route="W2E" depart="1135" departSpeed="10" departLane="best"/>
   <vehicle id="S2N_225" type="ego_car" route="S2N" depart="1141" departSpeed="10" departLane="best"/>
   <vehicle id="W2E_226" type="ego_car" route="W2E" depart="1148" departSpeed="10" departLane="best"/>
   <vehicle id="S2N_227" type="ego_car" route="S2N" depart="1149" departSpeed="10" departLane="best"/>
   <vehicle id="W2E_228" type="ego_car" route="W2E" depart="1149" departSpeed="10" departLane="best"/>
   <vehicle id="N2S_229" type="ego_car" route="N2S" depart="1150" departSpeed="10" departLane="best"/>
   <vehicle id="N2S_230" type="ego_car" route="N2S" depart="1154" departSpeed="10" departLane="best"/>
   <vehicle id="E2W_231" type="ego_car" route="E2W" depart="1155" departSpeed="10" departLane="best"/>
   <vehicle id="W2E_232" type="ego_car" route="W2E" depart="1158" departSpeed="10" departLane="best"/>
   <vehicle id="S2N_233" type="ego_car" route="S2N" depart="1163" departSpeed="10" departLane="best"/>
   <vehicle id="S2N_234" type="ego_car" route="S2N" depart="1164" departSpeed="10" departLane="best"/>
   <vehicle id="S2N_235" type="ego_car" route="S2N" depart="1171" departSpeed="10" departLane="best"/>
   <vehicle id="S2N_236" type="ego_car" route="S2N" depart="1177" departSpeed="10" departLane="best"/>
   <vehicle id="N2S_237" type="ego_car" route="N2S" depart="1181" departSpeed="10" departLane="best"/>
   <vehicle id="E2W_238" type="ego_car" route="E2W" depart="1182" departSpeed="10" departLane="best"/>
   <vehicle id="E2W_239" type="ego_car" route="E2W" depart="1183" departSpeed="10" departLane="best"/>
   <vehicle id="N2S_240" type="ego_car" route="N2S" depart="1189" departSpeed="10" departLane="best"/>
   <vehicle id="W2E_241" type="ego_car" route="W2E" depart="1191" departSpeed="10" departLane="best"/>
   <vehicle id="S2N_242" type="ego_car" route="S2N" depart="1192" departSpeed="10" departLane="best"/>
   <vehicle id="S2N_243" type="ego_car" route="S2N" depart="1193" departSpeed="10" departLane="best"/>
   <vehicle id="N2S_244" type="ego_car" route="N2S" depart="1200" departSpeed="10" departLane="best"/>
   <vehicle id="E2W_245" type="ego_car" route="E2W" depart="1224" departSpeed="10" departLane="best"/>
   <vehicle id="S2N_246" type="ego_car" route="S2N" depart="1226" departSpeed="10" departLane="best"/>
   <vehicle id="N2S_247" type="ego_car" route="N2S" depart="1226" departSpeed="10" departLane="best"/>
   <vehicle id="W2E_248" type="ego_car" route="W2E" depart="1231" departSpeed="10" departLane="best"/>
   <vehicle id="W2E_249" type="ego_car" route="W2E" depart="1233" departSpeed="10" departLane="best"/>
   <vehicle id="W2E_250" type="ego_car" route="W2E" depart="1234" departSpeed="10" departLane="best"/>
   <vehicle id="E2W_251" type="ego_car" route="E2W" depart="1238" departSpeed="10" departLane="best"/>
   <vehicle id="N2S_252" type="ego_car" route="N2S" depart="1238" departSpeed="10" departLane="best"/>
   <vehicle id="W2E_253" type="ego_car" route="W2E" depart="1252" departSpeed="10" departLane="best"/>
   <vehicle id="N2S_254" type="ego_car" route="N2S" depart="1256" departSpeed="10" departLane="best"/>
   <vehicle id="N2S_255" type="ego_car" route="N2S" depart="1264" departSpeed="10" departLane="best"/>
   <vehicle id="N2S_256" type="ego_car" route="N2S" depart="1272" departSpeed="10" departLane="best"/>
   <vehicle id="S2N_257" type="ego_car" route="S2N" depart="1290" departSpeed="10" departLane="best"/>
   <vehicle id="N2S_258" type="ego_car" route="N2S" depart="1292" departSpeed="10" departLane="best"/>
   <vehicle id="W2E_259" type="ego_car" route="W2E" depart="1304" departSpeed="10" departLane="best"/>
   <vehicle id="S2N_260" type="ego_car" route="S2N" depart="1305" departSpeed="10" departLane="best"/>
   <vehicle id="E2W_261" type="ego_car" route="E2W" depart="1306" departSpeed="10" departLane="best"/>
   <vehicle id="N2S_262" type="ego_car" route="N2S" depart="1310" departSpeed="10" departLane="best"/>
   <vehicle id="N2S_263" type="ego_car" route="N2S" depart="1312" departSpeed="10" departLane="best"/>
   <vehicle id="S2N_264" type="ego_car" route="S2N" depart="1317" departSpeed="10" departLane="best"/>
   <vehicle id="S2N_265" type="ego_car" route="S2N" depart="1321" departSpeed="10" departLane="best"/>
   <vehicle id="E2W_266" type="ego_car" route="E2W" depart="1323" departSpeed="10" departLane="best"/>
   <vehicle id="N2S_267" type="ego_car" route="N2S" depart="1331" departSpeed="10" departLane="best"/>
   <vehicle id="S2N_268" type="ego_car" route="S2N" depart="1335" departSpeed="10" departLane="best"/>
   <vehicle id="W2E_269" type="ego_car" route="W2E" depart="1346" departSpeed="10" departLane="best"/>
   <vehicle id="N2S_270" type="ego_car" route="N2S" depart="1369" departSpeed="10" departLane="best"/>
   <vehicle id="W2E_271" type="ego_car" route="W2E" depart="1369" departSpeed="10" departLane="best"/>
   <vehicle id="S2N_272" type="ego_car" route="S2N" depart="1371" departSpeed="10" departLane="best"/>
   <vehicle id="S2N_273" type="ego_car" route="S2N" depart="1373" departSpeed="10" departLane="best"/>
   <vehicle id="E2W_274" type="ego_car" route="E2W" depart="1382" departSpeed="10" departLane="best"/>
   <vehicle id="W2E_275" type="ego_car" route="W2E" depart="1385" departSpeed="10" departLane="best"/>
   <vehicle id="N2S_276" type="ego_car" route="N2S" depart="1392" departSpeed="10" departLane="best"/>
   <vehicle id="S2N_277" type="ego_car" route="S2N" depart="1394" departSpeed="10" departLane="best"/>
   <vehicle id="S2N_278" type="ego_car" route="S2N" depart="1394" departSpeed="10" departLane="best"/>
   <vehicle id="N2S_279" type="ego_car" route="N2S" depart="1396" departSpeed="10" departLane="best"/>
   <vehicle id="S2N_280" type="ego_car" route="S2N" depart="1399" departSpeed="10" departLane="best"/>
   <vehicle id="N2S_281" type="ego_car" route="N2S" depart="1401" departSpeed="10" departLane="best"/>
   <vehicle id="W2E_282" type="ego_car" route="W2E" depart="1414" departSpeed="10" departLane="best"/>
   <vehicle id="W2E_283" type="ego_car" route="W2E" depart="1420" departSpeed="10" departLane="best"/>
   <vehicle id="W2E_284" type="ego_car" route="W2E" depart="1421" departSpeed="10" departLane="best"/>
   <vehicle id="E2W_285" type="ego_car" route="E2W" depart="1423" departSpeed="10" departLane="best"/>
   <vehicle id="S2N_286" type="ego_car" route="S2N" depart="1428" departSpeed="10" departLane="best"/>
   <vehicle id="W2E_287" type="ego_car" route="W2E" depart="1431" departSpeed="10" departLane="best"/>
   <vehicle id="S2N_288" type="ego_car" route="S2N" depart="1434" departSpeed="10" departLane="best"/>
   <vehicle id="E2W_289" type="ego_car" route="E2W" depart="1437" departSpeed="10" departLane="best"/>
   <vehicle id="E2W_290" type="ego_car" route="E2W" depart="1451" departSpeed="10" departLane="best"/>