<routes>

        <vType id = 'ego_car' vclass="evehicle" emissionClass="Energy" accel="3.0" decel="3.0" color="#00FFFF" length="4.90" minGap="2.0" maxSpeed="20" guiShape="passenger"/>

        <route id="N2S" edges="NS -SN"/>
        <route id="S2N" edges="SN -NS"/>
        <route id="W2E" edges="WE -EW"/>
        <route id="E2W" edges="EW -WE"/>
   <vehicle id="S2N_1" type="ego_car" route="S2N" depart="0" departSpeed="10" departLane="best"/>
   <vehicle id="N2S_2" type="ego_car" route="N2S" depart="2" departSpeed="10" departLane="best"/>
   <vehicle id="S2N_3" type="ego_car" route="S2N" depart="6" departSpeed="10" departLane="best"/>
   <vehicle id="N2S_4" type="ego_car" route="N2S" depart="8" departSpeed="10" departLane="best"/>
   <vehicle id="S2N_5" type="ego_car" route="S2N" depart="12" departSpeed="10" departLane="best"/>
   <vehicle id="N2S_6" type="ego_car" route="N2S" depart="14" departSpeed="10" departLane="best"/>
   <vehicle id="S2N_7" type="ego_car" route="S2N" depart="18" departSpeed="10" departLane="best"/>
   <vehicle id="N2S_8" type="ego_car" route="N2S" depart="20" departSpeed="10" departLane="best"/>
   <vehicle id="S2N_9" type="ego_car" route="S2N" depart="24" departSpeed="10" departLane="best"/>
   <vehicle id="N2S_10" type="ego_car" route="N2S" depart="26" departSpeed="10" departLane="best"/>
   <vehicle id="S2N_11" type="ego_car" route="S2N" depart="30" departSpeed="10" departLane="best"/>
   <vehicle id="N2S_12" type="ego_car" route="N2S" depart="32" departSpeed="10" departLane="best"/>
   <vehicle id="S2N_13" type="ego_car" route="S2N" depart="36" departSpeed="10" departLane="best"/>
   <vehicle id="N2S_14" type="ego_car" route="N2S" depart="38" departSpeed="10" departLane="best"/>
   <vehicle id="S2N_15" type="ego_car" route="S2N" depart="42" departSpeed="10" departLane="best"/>
   <vehicle id="N2S_16" type="ego_car" route="N2S" depart="44" departSpeed="10" departLane="best"/>
   <vehicle id="S2N_17" type="ego_car" route="S2N" depart="48" departSpeed="10" departLane="best"/>
   <vehicle id="N2S_18" type="ego_car" route="N2S" depart="50" departSpeed="10" departLane="best"/>
   <vehicle id="S2N_19" type="ego_car" route="S2N" depart="54" departSpeed="10" departLane="best"/>
   <vehicle id="N2S_20" type="ego_car" route="N2S" depart="56" departSpeed="10" departLane="best"/>
   <vehicle id="S2N_21" type="ego_car" route="S2N" depart="60" departSpeed="10" departLane="best"/>
   <vehicle id="N2S_22" type="ego_car" route="N2S" depart="62" departSpeed="10" departLane="best"/>
   <vehicle id="S2N_23" type="ego_car" route="S2N" depart="66" departSpeed="10" departLane="best"/>
   <vehicle id="N2S_24" type="ego_car" route="N2S" depart="68" departSpeed="10" departLane="best"/>
   <vehicle id="S2N_25" type="ego_car" route="S2N" depart="72" departSpeed="10" departLane="best"/>
   <vehicle id="N2S_26" type="ego_car" route="N2S" depart="74" departSpeed="10" departLane="best"/>
   <vehicle id="S2N_27" type="ego_car" route="S2N" depart="78" departSpeed="10" departLane="best"/>
   <vehicle id="N2S_28" type="ego_car" route="N2S" depart="80" departSpeed="10" departLane="best"/>
   <vehicle id="S2N_29" type="ego_car" route="S2N" depart="84" departSpeed="10" departLane="best"/>
   <vehicle id="N2S_30" type="ego_car" route="N2S" depart="86" departSpeed="10" departLane="best"/>
   <vehicle id="S2N_31" type="ego_car" route="S2N" depart="90" departSpeed="10" departLane="best"/>
   <vehicle id="N2S_32" type="ego_car" route="N2S" depart="92" departSpeed="10" departLane="best"/>
   <vehicle id="S2N_33" type="ego_car" route="S2N" depart="96" departSpeed="10" departLane="best"/>
   <vehicle id="N2S_34" type="ego_car" route="N2S" depart="98" departSpeed="10" departLane="best"/>
   <vehicle id="S2N_35" type="ego_car" route="S2N" depart="102" departSpeed="10" departLane="best"/>
   <vehicle id="N2S_36" type="ego_car" route="N2S" depart="104" departSpeed="10" departLane="best"/>
   <vehicle id="S2N_37" type="ego_car" route="S2N" depart="108" departSpeed="10" departLane="best"/>
   <vehicle id="N2S_38" type="ego_car" route="N2S" depart="110" departSpeed="10" departLane="best"/>
   <vehicle id="S2N_39" type="ego_car" route="S2N" depart="114" departSpeed="10" departLane="best"/>
   <vehicle id="N2S_40" type="ego_car" route="N2S" depart="116" departSpeed="10" departLane="best"/>
   <vehicle id="S2N_41" type="ego_car" route="S2N" depart="120" departSpeed="10" departLane="best"/>
   <vehicle id="N2S_42" type="ego_car" route="N2S" depart="122" departSpeed="10" departLane="best"/>
   <vehicle id="S2N_43" type="ego_car" route="S2N" depart="126" departSpeed="10" departLane="best"/>
   <vehicle id="N2S_44" type="ego_car" route="N2S" depart="128" departSpeed="10" departLane="best"/>
   <vehicle id="S2N_45" type="ego_car" route="S2N" depart="132" departSpeed="10" departLane="best"/>
   <vehicle id="N2S_46" type="ego_car" route="N2S" depart="134" departSpeed="10" departLane="best"/>
   <vehicle id="S2N_47" type="ego_car" route="S2N" depart="138" departSpeed="10" departLane="best"/>
   <vehicle id="N2S_48" type="ego_car" route="N2S" depart="140" departSpeed="10" departLane="best"/>
   <vehicle id="S2N_49" type="ego_car" route="S2N" depart="144" departSpeed="10" departLane="best"/>
   <vehicle id="N2S_50" type="ego_car" route="N2S" depart="146" departSpeed="10" departLane="best"/>
   <vehicle id="S2N_51" type="ego_car" route="S2N" depart="150" departSpeed="10" departLane="best"/>
   <vehicle id="N2S_52" type="ego_car" route="N2S" depart="152" departSpeed="10" departLane="best"/>
   <vehicle id="S2N_53" type="ego_car" route="S2N" depart="156" departSpeed="10" departLane="best"/>
   <vehicle id="N2S_54" type="ego_car" route="N2S" depart="158" departSpeed="10" departLane="best"/>
   <vehicle id="S2N_55" type="ego_car" route="S2N" depart="162" departSpeed="10" departLane="best"/>
   <vehicle id="N2S_56" type="ego_car" route="N2S" depart="164" departSpeed="10" departLane="best"/>
   <vehicle id="S2N_57" type="ego_car" route="S2N" depart="168" departSpeed="10" departLane="best"/>
   <vehicle id="N2S_58" type="ego_car" route="N2S" depart="170" departSpeed="10" departLane="best"/>
   <vehicle id="S2N_59" type="ego_car" route="S2N" depart="174" departSpeed="10" departLane="best"/>
   <vehicle id="N2S_60" type="ego_car" route="N2S" depart="176" departSpeed="10" departLane="best"/>
   <vehicle id="S2N_61" type="ego_car" route="S2N" depart="180" departSpeed="10" departLane="best"/>
   <vehicle id="N2S_62" type="ego_car" route="N2S" depart="182" departSpeed="10" departLane="best"/>
   <vehicle id="S2N_63" type="ego_car" route="S2N" depart="186" departSpeed="10" departLane="best"/>
   <vehicle id="N2S_64" type="ego_car" route="N2S" depart="188" departSpeed="10" departLane="best"/>
   <vehicle id="S2N_65" type="ego_car" route="S2N" depart="192" departSpeed="10" departLane="best"/>
   <vehicle id="N2S_66" type="ego_car" route="N2S" depart="194" departSpeed="10" departLane="best"/>
   <vehicle id="S2N_67" type="ego_car" route="S2N" depart="198" departSpeed="10" departLane="best"/>
   <vehicle id="N2S_68" type="ego_car" route="N2S" depart="200" departSpeed="10" departLane="best"/>
   <vehicle id="S2N_69" type="ego_car" route="S2N" depart="204" departSpeed="10" departLane="best"/>
   <vehicle id="N2S_70" type="ego_car" route="N2S" depart="206" departSpeed="10" departLane="best"/>
   <vehicle id="S2N_71" type="ego_car" route="S2N" depart="210" departSpeed="10" departLane="best"/>
   <vehicle id="N2S_72" type="ego_car" route="N2S" depart="212" departSpeed="10" departLane="best"/>
   <vehicle id="S2N_73" type="ego_car" route="S2N" depart="216" departSpeed="10" departLane="best"/>
   <vehicle id="N2S_74" type="ego_car" route="N2S" depart="218" departSpeed="10" departLane="best"/>
   <vehicle id="S2N_75" type="ego_car" route="S2N" depart="222" departSpeed="10" departLane="best"/>
   <vehicle id="N2S_76" type="ego_car" route="N2S" depart="224" departSpeed="10" departLane="best"/>
   <vehicle id="S2N_77" type="ego_car" route="S2N" depart="228" departSpeed="10" departLane="best"/>
   <vehicle id="N2S_78" type="ego_car" route="N2S" depart="230" departSpeed="10" departLane="best"/>
   <vehicle id="S2N_79" type="ego_car" route="S2N" depart="234" departSpeed="10" departLane="best"/>
   <vehicle id="N2S_80" type="ego_car" route="N2S" depart="236" departSpeed="10" departLane="best"/>
   <vehicle id="S2N_81" type="ego_car" route="S2N" depart="240" departSpeed="10" departLane="best"/>
   <vehicle id="N2S_82" type="ego_car" route="N2S" depart="242" departSpeed="10" departLane="best"/>
   <vehicle id="S2N_83" type="ego_car" route="S2N" depart="246" departSpeed="10" departLane="best"/>
   <vehicle id="N2S_84" type="ego_car" route="N2S" depart="248" departSpeed="10" departLane="best"/>
   <vehicle id="S2N_85" type="ego_car" route="S2N" depart="252" departSpeed="10" departLane="best"/>
   <vehicle id="N2S_86" type="ego_car" route="N2S" depart="254" departSpeed="10" departLane="best"/>
   <vehicle id="S2N_87" type="ego_car" route="S2N" depart="258" departSpeed="10" departLane="best"/>
   <vehicle id="N2S_88" type="ego_car" route="N2S" depart="260" departSpeed="10" departLane="best"/>
   <vehicle id="S2N_89" type="ego_car" route="S2N" depart="264" departSpeed="10" departLane="best"/>
   <vehicle id="N2S_90" type="ego_car" route="N2S" depart="266" departSpeed="10" departLane="best"/>
   <vehicle id="S2N_91" type="ego_car" route="S2N" depart="270" departSpeed="10" departLane="best"/>
   <vehicle id="N2S_92" type="ego_car" route="N2S" depart="272" departSpeed="10" departLane="best"/>
   <vehicle id="S2N_93" type="ego_car" route="S2N" depart="276" departSpeed="10" departLane="best"/>
   <vehicle id="N2S_94" type="ego_car" route="N2S" depart="278" departSpeed="10" departLane="best"/>
   <vehicle id="S2N_95" type="ego_car" route="S2N" depart="282" departSpeed="10" departLane="best"/>
   <vehicle id="N2S_96" type="ego_car" route="N2S" depart="284" departSpeed="10" departLane="best"/>
   <vehicle id="S2N_97" type="ego_car" route="S2N" depart="288" departSpeed="10" departLane="best"/>
   <vehicle id="N2S_98" type="ego_car" route="N2S" depart="290" departSpeed="10" departLane="best"/>
   <vehicle id="S2N_99" type="ego_car" route="S2N" depart="294" departSpeed="10" departLane="best"/>
   <vehicle id="N2S_100" type="ego_car" route="N2S" depart="296" departSpeed="10" departLane="best"/>
   <vehicle id="S2N_101" type="ego_car" route="S2N" depart="300" departSpeed="10" departLane="best"/>
   <vehicle id="N2S_102" type="ego_car" route="N2S" depart="302" departSpeed="10" departLane="best"/>
   <vehicle id="S2N_103" type="ego_car" route="S2N" depart="306" departSpeed="10" departLane="best"/>
   <vehicle id="N2S_104" type="ego_car" route="N2S" depart="308" departSpeed="10" departLane="best"/>
   <vehicle id="S2N_105" type="ego_car" route="S2N" depart="312" departSpeed="10" departLane="best"/>
   <vehicle id="N2S_106" type="ego_car" route="N2S" depart="314" departSpeed="10" departLane="best"/>
   <vehicle id="S2N_107" type="ego_car" route="S2N" depart="318" departSpeed="10" departLane="best"/>
   <vehicle id="N2S_108" type="ego_car" route="N2S" depart="320" departSpeed="10" departLane="best"/>
   <vehicle id="S2N_109" type="ego_car" route="S2N" depart="324" departSpeed="10" departLane="best"/>
   <vehicle id="N2S_110" type="ego_car" route="N2S" depart="326" departSpeed="10" departLane="best"/>
   <vehicle id="S2N_111" type="ego_car" route="S2N" depart="330" departSpeed="10" departLane="best"/>
   <vehicle id="N2S_112" type="ego_car" route="N2S" depart="332" departSpeed="10" departLane="best"/>
   <vehicle id="S2N_113" type="ego_car" route="S2N" depart="336" departSpeed="10" departLane="best"/>
   <vehicle id="N2S_114" type="ego_car" route="N2S" depart="338" departSpeed="10" departLane="best"/>
   <vehicle id="S2N_115" type="ego_car" route="S2N" depart="342" departSpeed="10" departLane="best"/>
   <vehicle id="N2S_116" type="ego_car" route="N2S" depart="344" departSpeed="10" departLane="best"/>
   <vehicle id="S2N_117" type="ego_car" route="S2N" depart="348" departSpeed="10" departLane="best"/>
   <vehicle id="N2S_118" type="ego_car" route="N2S" depart="350" departSpeed="10" departLane="best"/>
   <vehicle id="S2N_119" type="ego_car" route="S2N" depart="354" departSpeed="10" departLane="best"/>
   <vehicle id="N2S_120" type="ego_car" route="N2S" depart="356" departSpeed="10" departLane="best"/>
   <vehicle id="S2N_121" type="ego_car" route="S2N" depart="360" departSpeed="10" departLane="best"/>
   <vehicle id="N2S_122" type="ego_car" route="N2S" depart="362" departSpeed="10" departLane="best"/>
   <vehicle id="S2N_123" type="ego_car" route="S2N" depart="366" departSpeed="10" departLane="best"/>
   <vehicle id="N2S_124" type="ego_car" route="N2S" depart="368" departSpeed="10" departLane="best"/>
   <vehicle id="S2N_125" type="ego_car" route="S2N" depart="372" departSpeed="10" departLane="best"/>
   <vehicle id="N2S_126" type="ego_car" route="N2S" depart="374" departSpeed="10" departLane="best"/>
   <vehicle id="S2N_127" type="ego_car" route="S2N" depart="378" departSpeed="10" departLane="best"/>
   <vehicle id="N2S_128" type="ego_car" route="N2S" depart="380" departSpeed="10" departLane="best"/>
   <vehicle id="S2N_129" type="ego_car" route="S2N" depart="384" departSpeed="10" departLane="best"/>
   <vehicle id="N2S_130" type="ego_car" route="N2S" depart="386" departSpeed="10" departLane="best"/>
   <vehicle id="S2N_131" type="ego_car" route="S2N" depart="390" departSpeed="10" departLane="best"/>
   <vehicle id="N2S_132" type="ego_car" route="N2S" depart="392" departSpeed="10" departLane="best"/>
   <vehicle id="S2N_133" type="ego_car" route="S2N" depart="396" departSpeed="10" departLane="best"/>
   <vehicle id="N2S_134" type="ego_car" route="N2S" depart="398" departSpeed="10" departLane="best"/>
   <vehicle id="S2N_135" type="ego_car" route="S2N" depart="402" departSpeed="10" departLane="best"/>
   <vehicle id="N2S_136" type="ego_car" route="N2S" depart="404" departSpeed="10" departLane="best"/>
   <vehicle id="S2N_137" type="ego_car" route="S2N" depart="408" departSpeed="10" departLane="best"/>
   <vehicle id="N2S_138" type="ego_car" route="N2S" depart="410" departSpeed="10" departLane="best"/>
   <vehicle id="S2N_139" type="ego_car" route="S2N" depart="414" departSpeed="10" departLane="best"/>
   <vehicle id="N2S_140" type="ego_car" route="N2S" depart="416" departSpeed="10" departLane="best"/>
   <vehicle id="S2N_141" type="ego_car" route="S2N" depart="420" departSpeed="10" departLane="best"/>
   <vehicle id="N2S_142" type="ego_car" route="N2S" depart="422" departSpeed="10" departLane="best"/>
   <vehicle id="S2N_143" type="ego_car" route="S2N" depart="426" departSpeed="10" departLane="best"/>
   <vehicle id="N2S_144" type="ego_car" route="N2S" depart="428" departSpeed="10" departLane="best"/>
   <vehicle id="S2N_145" type="ego_car" route="S2N" depart="432" departSpeed="10" departLane="best"/>
   <vehicle id="N2S_146" type="ego_car" route="N2S" depart="434" departSpeed="10" departLane="best"/>
   <vehicle id="S2N_147" type="ego_car" route="S2N" depart="438" departSpeed="10" departLane="best"/>
   <vehicle id="N2S_148" type="ego_car" route="N2S" depart="440" departSpeed="10" departLane="best"/>
   <vehicle id="S2N_149" type="ego_car" route="S2N" depart="444" departSpeed="10" departLane="best"/>
   <vehicle id="N2S_150" type="ego_car" route="N2S" depart="446" departSpeed="10" departLane="best"/>
   <vehicle id="S2N_151" type="ego_car" route="S2N" depart="450" departSpeed="10" departLane="best"/>
   <vehicle id="N2S_152" type="ego_car" route="N2S" depart="452" departSpeed="10" departLane="best"/>
   <vehicle id="S2N_153" type="ego_car" route="S2N" depart="456" departSpeed="10" departLane="best"/>
   <vehicle id="N2S_154" type="ego_car" route="N2S" depart="458" departSpeed="10" departLane="best"/>
   <vehicle id="S2N_155" type="ego_car" route="S2N" depart="462" departSpeed="10" departLane="best"/>
   <vehicle id="N2S_156" type="ego_car" route="N2S" depart="464" departSpeed="10" departLane="best"/>
   <vehicle id="S2N_157" type="ego_car" route="S2N" depart="468" departSpeed="10" departLane="best"/>
   <vehicle id="N2S_158" type="ego_car" route="N2S" depart="470" departSpeed="10" departLane="best"/>
   <vehicle id="S2N_159" type="ego_car" route="S2N" depart="474" departSpeed="10" departLane="best"/>
   <vehicle id="N2S_160" type="ego_car" route="N2S" depart="476" departSpeed="10" departLane="best"/>
   <vehicle id="S2N_161" type="ego_car" route="S2N" depart="480" departSpeed="10" departLane="best"/>
   <vehicle id="N2S_162" type="ego_car" route="N2S" depart="482" departSpeed="10" departLane="best"/>
   <vehicle id="S2N_163" type="ego_car" route="S2N" depart="486" departSpeed="10" departLane="best"/>
   <vehicle id="N2S_164" type="ego_car" route="N2S" depart="488" departSpeed="10" departLane="best"/>
   <vehicle id="S2N_165" type="ego_car" route="S2N" depart="492" departSpeed="10" departLane="best"/>
   <vehicle id="N2S_166" type="ego_car" route="N2S" depart="494" departSpeed="10" departLane="best"/>
   <vehicle id="S2N_167" type="ego_car" route="S2N" depart="498" departSpeed="10" departLane="best"/>
   <vehicle id="N2S_168" type="ego_car" route="N2S" depart="500" departSpeed="10" departLane="best"/>
   <vehicle id="S2N_169" type="ego_car" route="S2N" depart="504" departSpeed="10" departLane="best"/>
   <vehicle id="N2S_170" type="ego_car" route="N2S" depart="506" departSpeed="10" departLane="best"/>
   <vehicle id="S2N_171" type="ego_car" route="S2N" depart="510" departSpeed="10" departLane="best"/>
   <vehicle id="N2S_172" type="ego_car" route="N2S" depart="512" departSpeed="10" departLane="best"/>
   <vehicle id="S2N_173" type="ego_car" route="S2N" depart="516" departSpeed="10" departLane="best"/>
   <vehicle id="N2S_174" type="ego_car" route="N2S" depart="518" departSpeed="10" departLane="best"/>
   <vehicle id="S2N_175" type="ego_car" route="S2N" depart="522" departSpeed="10" departLane="best"/>
   <vehicle id="N2S_176" type="ego_car" route="N2S" depart="524" departSpeed="10" departLane="best"/>
   <vehicle id="S2N_177" type="ego_car" route="S2N" depart="528" departSpeed="10" departLane="best"/>
   <vehicle id="N2S_178" type="ego_car" route="N2S" depart="530" departSpeed="10" departLane="best"/>
   <vehicle id="S2N_179" type="ego_car" route="S2N" depart="534" departSpeed="10" departLane="best"/>
   <vehicle id="N2S_180" type="ego_car" route="N2S" depart="536" departSpeed="10" departLane="best"/>
   <vehicle id="S2N_181" type="ego_car" route="S2N" depart="540" departSpeed="10" departLane="best"/>
   <vehicle id="N2S_182" type="ego_car" route="N2S" depart="542" departSpeed="10" departLane="best"/>
   <vehicle id="S2N_183" type="ego_car" route="S2N" depart="546" departSpeed="10" departLane="best"/>
   <vehicle id="N2S_184" type="ego_car" route="N2S" depart="548" departSpeed="10" departLane="best"/>
   <vehicle id="S2N_185" type="ego_car" route="S2N" depart="552" departSpeed="10" departLane="best"/>
   <vehicle id="N2S_186" type="ego_car" route="N2S" depart="554" departSpeed="10" departLane="best"/>
   <vehicle id="S2N_187" type="ego_car" route="S2N" depart="558" departSpeed="10" departLane="best"/>
   <vehicle id="N2S_188" type="ego_car" route="N2S" depart="560" departSpeed="10" departLane="best"/>
   <vehicle id="S2N_189" type="ego_car" route="S2N" depart="564" departSpeed="10" departLane="best"/>
   <vehicle id="N2S_190" type="ego_car" route="N2S" depart="566" departSpeed="10" departLane="best"/>
   <vehicle id="S2N_191" type="ego_car" route="S2N" depart="570" departSpeed="10" departLane="best"/>
   <vehicle id="N2S_192" type="ego_car" route="N2S" depart="572" departSpeed="10" departLane="best"/>
   <vehicle id="S2N_193" type="ego_car" route="S2N" depart="576" departSpeed="10" departLane="best"/>
   <vehicle id="N2S_194" type="ego_car" route="N2S" depart="578" departSpeed="10" departLane="best"/>
   <vehicle id="S2N_195" type="ego_car" route="S2N" depart="582" departSpeed="10" departLane="best"/>
   <vehicle id="N2S_196" type="ego_car" route="N2S" depart="584" departSpeed="10" departLane="best"/>
   <vehicle id="S2N_197" type="ego_car" route="S2N" depart="588" departSpeed="10" departLane="best"/>
   <vehicle id="N2S_198" type="ego_car" route="N2S" depart="590" departSpeed="10" departLane="best"/>
   <vehicle id="S2N_199" type="ego_car" route="S2N" depart="594" departSpeed="10" departLane="best"/>
   <vehicle id="N2S_200" type="ego_car" route="N2S" depart="596" departSpeed="10" departLane="best"/>
   <vehicle id="S2N_201" type="ego_car" route="S2N" depart="600" departSpeed="10" departLane="best"/>
   <vehicle id="N2S_202" type="ego_car" route="N2S" depart="602" departSpeed="10" departLane="best"/>
   <vehicle id="S2N_203" type="ego_car" route="S2N" depart="606" departSpeed="10" departLane="best"/>
   <vehicle id="N2S_204" type="ego_car" route="N2S" depart="608" departSpeed="10" departLane="best"/>
   <vehicle id="S2N_205" type="ego_car" route="S2N" depart="612" departSpeed="10" departLane="best"/>
   <vehicle id="N2S_206" type="ego_car" route="N2S" depart="614" departSpeed="10" departLane="best"/>
   <vehicle id="S2N_207" type="ego_car" route="S2N" depart="618" departSpeed="10" departLane="best"/>
   <vehicle id="N2S_208" type="ego_car" route="N2S" depart="620" departSpeed="10" departLane="best"/>
   <vehicle id="S2N_209" type="ego_car" route="S2N" depart="624" departSpeed="10" departLane="best"/>
   <vehicle id="N2S_210" type="ego_car" route="N2S" depart="626" departSpeed="10" departLane="best"/>
   <vehicle id="S2N_211" type="ego_car" route="S2N" depart="630" departSpeed="10" departLane="best"/>
   <vehicle id="N2S_212" type="ego_car" route="N2S" depart="632" departSpeed="10" departLane="best"/>
   <vehicle id="S2N_213" type="ego_car" route="S2N" depart="636" departSpeed="10" departLane="best"/>
   <vehicle id="N2S_214" type="ego_car" route="N2S" depart="638" departSpeed="10" departLane="best"/>
   <vehicle id="S2N_215" type="ego_car" route="S2N" depart="642" departSpeed="10" departLane="best"/>
   <vehicle id="N2S_216" type="ego_car" route="N2S" depart="644" departSpeed="10" departLane="best"/>
   <vehicle id="S2N_217" type="ego_car" route="S2N" depart="648" departSpeed="10" departLane="best"/>
   <vehicle id="N2S_218" type="ego_car" route="N2S" depart="650" departSpeed="10" departLane="best"/>
   <vehicle id="S2N_219" type="ego_car" route="S2N" depart="654" departSpeed="10" departLane="best"/>
   <vehicle id="N2S_220" type="ego_car" route="N2S" depart="656" departSpeed="10" departLane="best"/>
   <vehicle id="S2N_221" type="ego_car" route="S2N" depart="660" departSpeed="10" departLane="best"/>
   <vehicle id="N2S_222" type="ego_car" route="N2S" depart="662" departSpeed="10" departLane="best"/>
   <vehicle id="S2N_223" type="ego_car" route="S2N" depart="666" departSpeed="10" departLane="best"/>
   <vehicle id="N2S_224" type="ego_car" route="N2S" depart="668" departSpeed="10" departLane="best"/>
   <vehicle id="S2N_225" type="ego_car" route="S2N" depart="672" departSpeed="10" departLane="best"/>
   <vehicle id="N2S_226" type="ego_car" route="N2S" depart="674" departSpeed="10" departLane="best"/>
   <vehicle id="S2N_227" type="ego_car" route="S2N" depart="678" departSpeed="10" departLane="best"/>
   <vehicle id="N2S_228" type="ego_car" route="N2S" depart="680" departSpeed="10" departLane="best"/>
   <vehicle id="S2N_229" type="ego_car" route="S2N" depart="684" departSpeed="10" departLane="best"/>
   <vehicle id="N2S_230" type="ego_car" route="N2S" depart="686" departSpeed="10" departLane="best"/>
   <vehicle id="S2N_231" type="ego_car" route="S2N" depart="690" departSpeed="10" departLane="best"/>
   <vehicle id="N2S_232" type="ego_car" route="N2S" depart="692" departSpeed="10" departLane="best"/>
   <vehicle id="S2N_233" type="ego_car" route="S2N" depart="696" departSpeed="10" departLane="best"/>
   <vehicle id="N2S_234" type="ego_car" route="N2S" depart="698" departSpeed="10" departLane="best"/>
   <vehicle id="S2N_235" type="ego_car" route="S2N" depart="702" departSpeed="10" departLane="best"/>
   <vehicle id="N2S_236" type="ego_car" route="N2S" depart="704" departSpeed="10" departLane="best"/>
   <vehicle id="S2N_237" type="ego_car" route="S2N" depart="708" departSpeed="10" departLane="best"/>
   <vehicle id="N2S_238" type="ego_car" route="N2S" depart="710" departSpeed="10" departLane="best"/>
   <vehicle id="S2N_239" type="ego_car" route="S2N" depart="714" departSpeed="10" departLane="best"/>
   <vehicle id="N2S_240" type="ego_car" route="N2S" depart="716" departSpeed="10" departLane="best"/>
   <vehicle id="S2N_241" type="ego_car" route="S2N" depart="720" departSpeed="10" departLane="best"/>
   <vehicle id="N2S_242" type="ego_car" route="N2S" depart="722" departSpeed="10" departLane="best"/>
   <vehicle id="S2N_243" type="ego_car" route="S2N" depart="726" departSpeed="10" departLane="best"/>
   <vehicle id="N2S_244" type="ego_car" route="N2S" depart="728" departSpeed="10" departLane="best"/>
   <vehicle id="S2N_245" type="ego_car" route="S2N" depart="732" departSpeed="10" departLane="best"/>
   <vehicle id="N2S_246" type="ego_car" route="N2S" depart="734" departSpeed="10" departLane="best"/>
   <vehicle id="S2N_247" type="ego_car" route="S2N" depart="738" departSpeed="10" departLane="best"/>
   <vehicle id="N2S_248" type="ego_car" route="N2S" depart="740" departSpeed="10" departLane="best"/>
   <vehicle id="S2N_249" type="ego_car" route="S2N" depart="744" departSpeed="10" departLane="best"/>
   <vehicle id="N2S_250" type="ego_car" route="N2S" depart="746" departSpeed="10" departLane="best"/>
   <vehicle id="S2N_251" type="ego_car" route="S2N" depart="750" departSpeed="10" departLane="best"/>
   <vehicle id="N2S_252" type="ego_car" route="N2S" depart="752" departSpeed="10" departLane="best"/>
   <vehicle id="S2N_253" type="ego_car" route="S2N" depart="756" departSpeed="10" departLane="best"/>
   <vehicle id="N2S_254" type="ego_car" route="N2S" depart="758" departSpeed="10" departLane="best"/>
   <vehicle id="S2N_255" type="ego_car" route="S2N" depart="762" departSpeed="10" departLane="best"/>
   <vehicle id="N2S_256" type="ego_car" route="N2S" depart="764" departSpeed="10" departLane="best"/>
   <vehicle id="S2N_257" type="ego_car" route="S2N" depart="768" departSpeed="10" departLane="best"/>
   <vehicle id="N2S_258" type="ego_car" route="N2S" depart="770" departSpeed="10" departLane="best"/>
   <vehicle id="S2N_259" type="ego_car" route="S2N" depart="774" departSpeed="10" departLane="best"/>
   <vehicle id="N2S_260" type="ego_car" route="N2S" depart="776" departSpeed="10" departLane="best"/>
   <vehicle id="S2N_261" type="ego_car" route="S2N" depart="780" departSpeed="10" departLane="best"/>
   <vehicle id="N2S_262" type="ego_car" route="N2S" depart="782" departSpeed="10" departLane="best"/>
   <vehicle id="S2N_263" type="ego_car" route="S2N" depart="786" departSpeed="10" departLane="best"/>
   <vehicle id="N2S_264" type="ego_car" route="N2S" depart="788" departSpeed="10" departLane="best"/>
   <vehicle id="S2N_265" type="ego_car" route="S2N" depart="792" departSpeed="10" departLane="best"/>
   <vehicle id="N2S_266" type="ego_car" route="N2S" depart="794" departSpeed="10" departLane="best"/>
   <vehicle id="S2N_267" type="ego_car" route="S2N" depart="798" departSpeed="10" departLane="best"/>
   <vehicle id="N2S_268" type="ego_car" route="N2S" depart="800" departSpeed="10" departLane="best"/>
   <vehicle id="S2N_269" type="ego_car" route="S2N" depart="804" departSpeed="10" departLane="best"/>
   <vehicle id="N2S_270" type="ego_car" route="N2S" depart="806" departSpeed="10" departLane="best"/>
   <vehicle id="S2N_271" type="ego_car" route="S2N" depart="810" departSpeed="10" departLane="best"/>
   <vehicle id="N2S_272" type="ego_car" route="N2S" depart="812" departSpeed="10" departLane="best"/>
   <vehicle id="S2N_273" type="ego_car" route="S2N" depart="816" departSpeed="10" departLane="best"/>
   <vehicle id="N2S_274" type="ego_car" route="N2S" depart="818" departSpeed="10" departLane="best"/>
   <vehicle id="S2N_275" type="ego_car" route="S2N" depart="822" departSpeed="10" departLane="best"/>
   <vehicle id="N2S_276" type="ego_car" route="N2S" depart="824" departSpeed="10" departLane="best"/>
   <vehicle id="S2N_277" type="ego_car" route="S2N" depart="828" departSpeed="10" departLane="best"/>
   <vehicle id="N2S_278" type="ego_car" route="N2S" depart="830" departSpeed="10" departLane="best"/>
   <vehicle id="S2N_279" type="ego_car" route="S2N" depart="834" departSpeed="10" departLane="best"/>
   <vehicle id="N2S_280" type="ego_car" route="N2S" depart="836" departSpeed="10" departLane="best"/>
   <vehicle id="S2N_281" type="ego_car" route="S2N" depart="840" departSpeed="10" departLane="best"/>
   <vehicle id="N2S_282" type="ego_car" route="N2S" depart="842" departSpeed="10" departLane="best"/>
   <vehicle id="S2N_283" type="ego_car" route="S2N" depart="846" departSpeed="10" departLane="best"/>
   <vehicle id="N2S_284" type="ego_car" route="N2S" depart="848" departSpeed="10" departLane="best"/>
   <vehicle id="S2N_285" type="ego_car" route="S2N" depart="852" departSpeed="10" departLane="best"/>
   <vehicle id="N2S_286" type="ego_car" route="N2S" depart="854" departSpeed="10" departLane="best"/>
   <vehicle id="S2N_287" type="ego_car" route="S2N" depart="858" departSpeed="10" departLane="best"/>
   <vehicle id="N2S_288" type="ego_car" route="N2S" depart="860" departSpeed="10" departLane="best"/>
   <vehicle id="S2N_289" type="ego_car" route="S2N" depart="864" departSpeed="10" departLane="best"/>
   <vehicle id="N2S_290" type="ego_car" route="N2S" depart="866" departSpeed="10" departLane="best"/>
   <vehicle id="S2N_291" type="ego_car" route="S2N" depart="870" departSpeed="10" departLane="best"/>
   <vehicle id="N2S_292" type="ego_car" route="N2S" depart="872" departSpeed="10" departLane="best"/>