<routes>

        <vType id = 'ego_car' vclass="evehicle" emissionClass="Energy" tau="1.5" accel="3.0" decel="3.0" color="#00FFFF" sigma="0.2" length="4.90" minGap="1.0" maxSpeed="20" carFollowing="IDM" guiShape="passenger"/>

        <route id="N2S" edges="NS -SN"/>
        <route id="S2N" edges="SN -NS"/>
        <route id="W2E" edges="WE -EW"/>
        <route id="E2W" edges="EW -WE"/>
   <vehicle id="hN2S_1" type="ego_car" route="N2S" depart="48" departSpeed="10" departLane="best"/>
   <vehicle id="N2S_2" type="ego_car" route="N2S" depart="100" departSpeed="10" departLane="best"/>
   <vehicle id="hW2E_3" type="ego_car" route="W2E" depart="150" departSpeed="10" departLane="best"/>
   <vehicle id="E2W_4" type="ego_car" route="E2W" depart="155" departSpeed="10" departLane="best"/>
   <vehicle id="hN2S_5" type="ego_car" route="N2S" depart="160" departSpeed="10" departLane="best"/>
   <vehicle id="hN2S_6" type="ego_car" route="N2S" depart="175" departSpeed="10" departLane="best"/>
   <vehicle id="hW2E_7" type="ego_car" route="W2E" depart="185" departSpeed="10" departLane="best"/>
   <vehicle id="W2E_8" type="ego_car" route="W2E" depart="196" departSpeed="10" departLane="best"/>
   <vehicle id="hW2E_9" type="ego_car" route="W2E" depart="202" departSpeed="10" departLane="best"/>
   <vehicle id="E2W_10" type="ego_car" route="E2W" depart="216" departSpeed="10" departLane="best"/>
   <vehicle id="E2W_11" type="ego_car" route="E2W" depart="216" departSpeed="10" departLane="best"/>
   <vehicle id="hE2W_12" type="ego_car" route="E2W" depart="240" departSpeed="10" departLane="best"/>
   <vehicle id="W2E_13" type="ego_car" route="W2E" depart="252" departSpeed="10" departLane="best"/>
   <vehicle id="S2N_14" type="ego_car" route="S2N" depart="263" departSpeed="10" departLane="best"/>
   <vehicle id="hE2W_15" type="ego_car" route="E2W" depart="269" departSpeed="10" departLane="best"/>
   <vehicle id="hS2N_16" type="ego_car" route="S2N" depart="281" departSpeed="10" departLane="best"/>
   <vehicle id="W2E_17" type="ego_car" route="W2E" depart="284" departSpeed="10" departLane="best"/>
   <vehicle id="hN2S_18" type="ego_car" route="N2S" depart="294" departSpeed="10" departLane="best"/>
   <vehicle id="hN2S_19" type="ego_car" route="N2S" depart="295" departSpeed="10" departLane="best"/>
   <vehicle id="E2W_20" type="ego_car" route="E2W" depart="325" departSpeed="10" departLane="best"/>
   <vehicle id="hW2E_21" type="ego_car" route="W2E" depart="328" departSpeed="10" departLane="best"/>
   <vehicle id="hW2E_22" type="ego_car" route="W2E" depart="328" departSpeed="10" departLane="best"/>
   <vehicle id="hE2W_23" type="ego_car" route="E2W" depart="338" departSpeed="10" departLane="best"/>
   <vehicle id="S2N_24" type="ego_car" route="S2N" depart="339" departSpeed="10" departLane="best"/>
   <vehicle id="hS2N_25" type="ego_car" route="S2N" depart="342" departSpeed="10" departLane="best"/>
   <vehicle id="hS2N_26" type="ego_car" route="S2N" depart="342" departSpeed="10" departLane="best"/>
   <vehicle id="N2S_27" type="ego_car" route="N2S" depart="365" departSpeed="10" departLane="best"/>
   <vehicle id="S2N_28" type="ego_car" route="S2N" depart="369" departSpeed="10" departLane="best"/>
   <vehicle id="hE2W_29" type="ego_car" route="E2W" depart="370" departSpeed="10" departLane="best"/>
   <vehicle id="hN2S_30" type="ego_car" route="N2S" depart="380" departSpeed="10" departLane="best"/>
   <vehicle id="hS2N_31" type="ego_car" route="S2N" depart="384" departSpeed="10" departLane="best"/>
   <vehicle id="hW2E_32" type="ego_car" route="W2E" depart="390" departSpeed="10" departLane="best"/>
   <vehicle id="hS2N_33" type="ego_car" route="S2N" depart="394" departSpeed="10" departLane="best"/>
   <vehicle id="hE2W_34" type="ego_car" route="E2W" depart="399" departSpeed="10" departLane="best"/>
   <vehicle id="hS2N_35" type="ego_car" route="S2N" depart="407" departSpeed="10" departLane="best"/>
   <vehicle id="hW2E_36" type="ego_car" route="W2E" depart="410" departSpeed="10" departLane="best"/>
   <vehicle id="hN2S_37" type="ego_car" route="N2S" depart="416" departSpeed="10" departLane="best"/>
   <vehicle id="hW2E_38" type="ego_car" route="W2E" depart="420" departSpeed="10" departLane="best"/>
   <vehicle id="hE2W_39" type="ego_car" route="E2W" depart="424" departSpeed="10" departLane="best"/>
   <vehicle id="hW2E_40" type="ego_car" route="W2E" depart="424" departSpeed="10" departLane="best"/>
   <vehicle id="hN2S_41" type="ego_car" route="N2S" depart="434" departSpeed="10" departLane="best"/>
   <vehicle id="S2N_42" type="ego_car" route="S2N" depart="440" departSpeed="10" departLane="best"/>
   <vehicle id="N2S_43" type="ego_car" route="N2S" depart="440" departSpeed="10" departLane="best"/>
   <vehicle id="hN2S_44" type="ego_car" route="N2S" depart="451" departSpeed="10" departLane="best"/>
   <vehicle id="W2E_45" type="ego_car" route="W2E" depart="453" departSpeed="10" departLane="best"/>
   <vehicle id="W2E_46" type="ego_car" route="W2E" depart="459" departSpeed="10" departLane="best"/>
   <vehicle id="S2N_47" type="ego_car" route="S2N" depart="460" departSpeed="10" departLane="best"/>
   <vehicle id="hW2E_48" type="ego_car" route="W2E" depart="470" departSpeed="10" departLane="best"/>
   <vehicle id="hN2S_49" type="ego_car" route="N2S" depart="476" departSpeed="10" departLane="best"/>
   <vehicle id="hN2S_50" type="ego_car" route="N2S" depart="481" departSpeed="10" departLane="best"/>
   <vehicle id="hW2E_51" type="ego_car" route="W2E" depart="484" departSpeed="10" departLane="best"/>
   <vehicle id="E2W_52" type="ego_car" route="E2W" depart="486" departSpeed="10" departLane="best"/>
   <vehicle id="hS2N_53" type="ego_car" route="S2N" depart="487" departSpeed="10" departLane="best"/>
   <vehicle id="hW2E_54" type="ego_car" route="W2E" depart="488" departSpeed="10" departLane="best"/>
   <vehicle id="hE2W_55" type="ego_car" route="E2W" depart="503" departSpeed="10" departLane="best"/>
   <vehicle id="hW2E_56" type="ego_car" route="W2E" depart="510" departSpeed="10" departLane="best"/>
   <vehicle id="E2W_57" type="ego_car" route="E2W" depart="515" departSpeed="10" departLane="best"/>
   <vehicle id="hW2E_58" type="ego_car" route="W2E" depart="516" departSpeed="10" departLane="best"/>
   <vehicle id="S2N_59" type="ego_car" route="S2N" depart="517" departSpeed="10" departLane="best"/>
   <vehicle id="hE2W_60" type="ego_car" route="E2W" depart="518" departSpeed="10" departLane="best"/>
   <vehicle id="hN2S_61" type="ego_car" route="N2S" depart="518" departSpeed="10" departLane="best"/>
   <vehicle id="hW2E_62" type="ego_car" route="W2E" depart="525" departSpeed="10" departLane="best"/>
   <vehicle id="hE2W_63" type="ego_car" route="E2W" depart="531" departSpeed="10" departLane="best"/>
   <vehicle id="hS2N_64" type="ego_car" route="S2N" depart="534" departSpeed="10" departLane="best"/>
   <vehicle id="hE2W_65" type="ego_car" route="E2W" depart="536" departSpeed="10" departLane="best"/>
   <vehicle id="hW2E_66" type="ego_car" route="W2E" depart="536" departSpeed="10" departLane="best"/>
   <vehicle id="S2N_67" type="ego_car" route="S2N" depart="537" departSpeed="10" departLane="best"/>
   <vehicle id="W2E_68" type="ego_car" route="W2E" depart="546" departSpeed="10" departLane="best"/>
   <vehicle id="hS2N_69" type="ego_car" route="S2N" depart="549" departSpeed="10" departLane="best"/>
   <vehicle id="hE2W_70" type="ego_car" route="E2W" depart="551" departSpeed="10" departLane="best"/>
   <vehicle id="S2N_71" type="ego_car" route="S2N" depart="553" departSpeed="10" departLane="best"/>
   <vehicle id="hS2N_72" type="ego_car" route="S2N" depart="553" departSpeed="10" departLane="best"/>
   <vehicle id="hN2S_73" type="ego_car" route="N2S" depart="565" departSpeed="10" departLane="best"/>
   <vehicle id="hS2N_74" type="ego_car" route="S2N" depart="567" departSpeed="10" departLane="best"/>
   <vehicle id="hE2W_75" type="ego_car" route="E2W" depart="568" departSpeed="10" departLane="best"/>
   <vehicle id="hS2N_76" type="ego_car" route="S2N" depart="571" departSpeed="10" departLane="best"/>
   <vehicle id="hN2S_77" type="ego_car" route="N2S" depart="573" departSpeed="10" departLane="best"/>
   <vehicle id="hS2N_78" type="ego_car" route="S2N" depart="581" departSpeed="10" departLane="best"/>
   <vehicle id="hS2N_79" type="ego_car" route="S2N" depart="582" departSpeed="10" departLane="best"/>
   <vehicle id="S2N_80" type="ego_car" route="S2N" depart="588" departSpeed="10" departLane="best"/>
   <vehicle id="hN2S_81" type="ego_car" route="N2S" depart="595" departSpeed="10" departLane="best"/>
   <vehicle id="hE2W_82" type="ego_car" route="E2W" depart="595" departSpeed="10" departLane="best"/>
   <vehicle id="hE2W_83" type="ego_car" route="E2W" depart="605" departSpeed="10" departLane="best"/>
   <vehicle id="hN2S_84" type="ego_car" route="N2S" depart="612" departSpeed="10" departLane="best"/>
   <vehicle id="hN2S_85" type="ego_car" route="N2S" depart="621" departSpeed="10" departLane="best"/>
   <vehicle id="N2S_86" type="ego_car" route="N2S" depart="623" departSpeed="10" departLane="best"/>
   <vehicle id="hS2N_87" type="ego_car" route="S2N" depart="623" departSpeed="10" departLane="best"/>
   <vehicle id="hS2N_88" type="ego_car" route="S2N" depart="628" departSpeed="10" departLane="best"/>
   <vehicle id="E2W_89" type="ego_car" route="E2W" depart="630" departSpeed="10" departLane="best"/>
   <vehicle id="S2N_90" type="ego_car" route="S2N" depart="636" departSpeed="10" departLane="best"/>
   <vehicle id="S2N_91" type="ego_car" route="S2N" depart="641" departSpeed="10" departLane="best"/>
   <vehicle id="hS2N_92" type="ego_car" route="S2N" depart="644" departSpeed="10" departLane="best"/>
   <vehicle id="hW2E_93" type="ego_car" route="W2E" depart="645" departSpeed="10" departLane="best"/>
   <vehicle id="hS2N_94" type="ego_car" route="S2N" depart="660" departSpeed="10" departLane="best"/>
   <vehicle id="N2S_95" type="ego_car" route="N2S" depart="668" departSpeed="10" departLane="best"/>
   <vehicle id="hN2S_96" type="ego_car" route="N2S" depart="671" departSpeed="10" departLane="best"/>
   <vehicle id="hW2E_97" type="ego_car" route="W2E" depart="673" departSpeed="10" departLane="best"/>
   <vehicle id="hE2W_98" type="ego_car" route="E2W" depart="679" departSpeed="10" departLane="best"/>
   <vehicle id="hW2E_99" type="ego_car" route="W2E" depart="680" departSpeed="10" departLane="best"/>
   <vehicle id="hE2W_100" type="ego_car" route="E2W" depart="682" departSpeed="10" departLane="best"/>
   <vehicle id="S2N_101" type="ego_car" route="S2N" depart="701" departSpeed="10" departLane="best"/>
   <vehicle id="hS2N_102" type="ego_car" route="S2N" depart="703" departSpeed="10" departLane="best"/>
   <vehicle id="hW2E_103" type="ego_car" route="W2E" depart="704" departSpeed="10" departLane="best"/>
   <vehicle id="hE2W_104" type="ego_car" route="E2W" depart="705" departSpeed="10" departLane="best"/>
   <vehicle id="hE2W_105" type="ego_car" route="E2W" depart="707" departSpeed="10" departLane="best"/>
   <vehicle id="hE2W_106" type="ego_car" route="E2W" depart="708" departSpeed="10" departLane="best"/>
   <vehicle id="W2E_107" type="ego_car" route="W2E" depart="712" departSpeed="10" departLane="best"/>
   <vehicle id="hE2W_108" type="ego_car" route="E2W" depart="713" departSpeed="10" departLane="best"/>
   <vehicle id="hE2W_109" type="ego_car" route="E2W" depart="713" departSpeed="10" departLane="best"/>
   <vehicle id="hS2N_110" type="ego_car" route="S2N" depart="713" departSpeed="10" departLane="best"/>
   <vehicle id="hE2W_111" type="ego_car" route="E2W" depart="716" departSpeed="10" departLane="best"/>
   <vehicle id="hS2N_112" type="ego_car" route="S2N" depart="725" departSpeed="10" departLane="best"/>
   <vehicle id="hN2S_113" type="ego_car" route="N2S" depart="727" departSpeed="10" departLane="best"/>
   <vehicle id="W2E_114" type="ego_car" route="W2E" depart="727" departSpeed="10" departLane="best"/>
   <vehicle id="hN2S_115" type="ego_car" route="N2S" depart="728" departSpeed="10" departLane="best"/>
   <vehicle id="hS2N_116" type="ego_car" route="S2N" depart="731" departSpeed="10" departLane="best"/>
   <vehicle id="hE2W_117" type="ego_car" route="E2W" depart="733" departSpeed="10" departLane="best"/>
   <vehicle id="hN2S_118" type="ego_car" route="N2S" depart="735" departSpeed="10" departLane="best"/>
   <vehicle id="hS2N_119" type="ego_car" route="S2N" depart="736" departSpeed="10" departLane="best"/>
   <vehicle id="W2E_120" type="ego_car" route="W2E" depart="740" departSpeed="10" departLane="best"/>
   <vehicle id="hW2E_121" type="ego_car" route="W2E" depart="741" departSpeed="10" departLane="best"/>
   <vehicle id="hE2W_122" type="ego_car" route="E2W" depart="741" departSpeed="10" departLane="best"/>
   <vehicle id="hN2S_123" type="ego_car" route="N2S" depart="743" departSpeed="10" departLane="best"/>
   <vehicle id="hW2E_124" type="ego_car" route="W2E" depart="762" departSpeed="10" departLane="best"/>
   <vehicle id="N2S_125" type="ego_car" route="N2S" depart="766" departSpeed="10" departLane="best"/>
   <vehicle id="hS2N_126" type="ego_car" route="S2N" depart="767" departSpeed="10" departLane="best"/>
   <vehicle id="E2W_127" type="ego_car" route="E2W" depart="768" departSpeed="10" departLane="best"/>
   <vehicle id="hE2W_128" type="ego_car" route="E2W" depart="774" departSpeed="10" departLane="best"/>
   <vehicle id="hS2N_129" type="ego_car" route="S2N" depart="775" departSpeed="10" departLane="best"/>
   <vehicle id="hE2W_130" type="ego_car" route="E2W" depart="776" departSpeed="10" departLane="best"/>
   <vehicle id="hN2S_131" type="ego_car" route="N2S" depart="778" departSpeed="10" departLane="best"/>
   <vehicle id="S2N_132" type="ego_car" route="S2N" depart="779" departSpeed="10" departLane="best"/>
   <vehicle id="hS2N_133" type="ego_car" route="S2N" depart="783" departSpeed="10" departLane="best"/>
   <vehicle id="hN2S_134" type="ego_car" route="N2S" depart="784" departSpeed="10" departLane="best"/>
   <vehicle id="E2W_135" type="ego_car" route="E2W" depart="784" departSpeed="10" departLane="best"/>
   <vehicle id="hN2S_136" type="ego_car" route="N2S" depart="785" departSpeed="10" departLane="best"/>
   <vehicle id="E2W_137" type="ego_car" route="E2W" depart="789" departSpeed="10" departLane="best"/>
   <vehicle id="hN2S_138" type="ego_car" route="N2S" depart="791" departSpeed="10" departLane="best"/>
   <vehicle id="hE2W_139" type="ego_car" route="E2W" depart="793" departSpeed="10" departLane="best"/>
   <vehicle id="S2N_140" type="ego_car" route="S2N" depart="795" departSpeed="10" departLane="best"/>
   <vehicle id="hN2S_141" type="ego_car" route="N2S" depart="805" departSpeed="10" departLane="best"/>
   <vehicle id="hE2W_142" type="ego_car" route="E2W" depart="806" departSpeed="10" departLane="best"/>
   <vehicle id="hE2W_143" type="ego_car" route="E2W" depart="809" departSpeed="10" departLane="best"/>
   <vehicle id="hW2E_144" type="ego_car" route="W2E" depart="813" departSpeed="10" departLane="best"/>
   <vehicle id="hS2N_145" type="ego_car" route="S2N" depart="813" departSpeed="10" departLane="best"/>
   <vehicle id="W2E_146" type="ego_car" route="W2E" depart="816" departSpeed="10" departLane="best"/>
   <vehicle id="hE2W_147" type="ego_car" route="E2W" depart="817" departSpeed="10" departLane="best"/>
   <vehicle id="hS2N_148" type="ego_car" route="S2N" depart="828" departSpeed="10" departLane="best"/>
   <vehicle id="N2S_149" type="ego_car" route="N2S" depart="832" departSpeed="10" departLane="best"/>
   <vehicle id="hE2W_150" type="ego_car" route="E2W" depart="837" departSpeed="10" departLane="best"/>
   <vehicle id="hW2E_151" type="ego_car" route="W2E" depart="839" departSpeed="10" departLane="best"/>
   <vehicle id="hN2S_152" type="ego_car" route="N2S" depart="841" departSpeed="10" departLane="best"/>
   <vehicle id="hS2N_153" type="ego_car" route="S2N" depart="841" departSpeed="10" departLane="best"/>
   <vehicle id="hS2N_154" type="ego_car" route="S2N" depart="843" departSpeed="10" departLane="best"/>
   <vehicle id="W2E_155" type="ego_car" route="W2E" depart="848" departSpeed="10" departLane="best"/>
   <vehicle id="N2S_156" type="ego_car" route="N2S" depart="851" departSpeed="10" departLane="best"/>
   <vehicle id="hN2S_157" type="ego_car" route="N2S" depart="854" departSpeed="10" departLane="best"/>
   <vehicle id="hS2N_158" type="ego_car" route="S2N" depart="857" departSpeed="10" departLane="best"/>
   <vehicle id="W2E_159" type="ego_car" route="W2E" depart="871" departSpeed="10" departLane="best"/>
   <vehicle id="W2E_160" type="ego_car" route="W2E" depart="877" departSpeed="10" departLane="best"/>
   <vehicle id="W2E_161" type="ego_car" route="W2E" depart="879" departSpeed="10" departLane="best"/>
   <vehicle id="hE2W_162" type="ego_car" route="E2W" depart="883" departSpeed="10" departLane="best"/>
   <vehicle id="W2E_163" type="ego_car" route="W2E" depart="886" departSpeed="10" departLane="best"/>
   <vehicle id="hW2E_164" type="ego_car" route="W2E" depart="887" departSpeed="10" departLane="best"/>
   <vehicle id="hW2E_165" type="ego_car" route="W2E" depart="888" departSpeed="10" departLane="best"/>
   <vehicle id="W2E_166" type="ego_car" route="W2E" depart="891" departSpeed="10" departLane="best"/>
   <vehicle id="E2W_167" type="ego_car" route="E2W" depart="891" departSpeed="10" departLane="best"/>
   <vehicle id="hE2W_168" type="ego_car" route="E2W" depart="893" departSpeed="10" departLane="best"/>
   <vehicle id="W2E_169" type="ego_car" route="W2E" depart="895" departSpeed="10" departLane="best"/>
   <vehicle id="S2N_170" type="ego_car" route="S2N" depart="899" departSpeed="10" departLane="best"/>
   <vehicle id="hW2E_171" type="ego_car" route="W2E" depart="903" departSpeed="10" departLane="best"/>
   <vehicle id="hE2W_172" type="ego_car" route="E2W" depart="903" departSpeed="10" departLane="best"/>
   <vehicle id="hE2W_173" type="ego_car" route="E2W" depart="905" departSpeed="10" departLane="best"/>
   <vehicle id="hW2E_174" type="ego_car" route="W2E" depart="910" departSpeed="10" departLane="best"/>
   <vehicle id="hS2N_175" type="ego_car" route="S2N" depart="919" departSpeed="10" departLane="best"/>
   <vehicle id="S2N_176" type="ego_car" route="S2N" depart="923" departSpeed="10" departLane="best"/>
   <vehicle id="E2W_177" type="ego_car" route="E2W" depart="926" departSpeed="10" departLane="best"/>
   <vehicle id="hE2W_178" type="ego_car" route="E2W" depart="937" departSpeed="10" departLane="best"/>
   <vehicle id="hN2S_179" type="ego_car" route="N2S" depart="938" departSpeed="10" departLane="best"/>
   <vehicle id="hS2N_180" type="ego_car" route="S2N" depart="940" departSpeed="10" departLane="best"/>
   <vehicle id="hE2W_181" type="ego_car" route="E2W" depart="941" departSpeed="10" departLane="best"/>
   <vehicle id="hE2W_182" type="ego_car" route="E2W" depart="945" departSpeed="10" departLane="best"/>
   <vehicle id="hW2E_183" type="ego_car" route="W2E" depart="947" departSpeed="10" departLane="best"/>
   <vehicle id="S2N_184" type="ego_car" route="S2N" depart="948" departSpeed="10" departLane="best"/>
   <vehicle id="hS2N_185" type="ego_car" route="S2N" depart="950" departSpeed="10" departLane="best"/>
   <vehicle id="hW2E_186" type="ego_car" route="W2E" depart="951" departSpeed="10" departLane="best"/>
   <vehicle id="hE2W_187" type="ego_car" route="E2W" depart="951" departSpeed="10" departLane="best"/>
   <vehicle id="E2W_188" type="ego_car" route="E2W" depart="953" departSpeed="10" departLane="best"/>
   <vehicle id="W2E_189" type="ego_car" route="W2E" depart="961" departSpeed="10" departLane="best"/>
   <vehicle id="hW2E_190" type="ego_car" route="W2E" depart="965" departSpeed="10" departLane="best"/>
   <vehicle id="hN2S_191" type="ego_car" route="N2S" depart="966" departSpeed="10" departLane="best"/>
   <vehicle id="hN2S_192" type="ego_car" route="N2S" depart="970" departSpeed="10" departLane="best"/>
   <vehicle id="W2E_193" type="ego_car" route="W2E" depart="974" departSpeed="10" departLane="best"/>
   <vehicle id="hE2W_194" type="ego_car" route="E2W" depart="977" departSpeed="10" departLane="best"/>
   <vehicle id="hS2N_195" type="ego_car" route="S2N" depart="979" departSpeed="10" departLane="best"/>
   <vehicle id="hS2N_196" type="ego_car" route="S2N" depart="981" departSpeed="10" departLane="best"/>
   <vehicle id="hS2N_197" type="ego_car" route="S2N" depart="981" departSpeed="10" departLane="best"/>
   <vehicle id="S2N_198" type="ego_car" route="S2N" depart="983" departSpeed="10" departLane="best"/>
   <vehicle id="hN2S_199" type="ego_car" route="N2S" depart="985" departSpeed="10" departLane="best"/>
   <vehicle id="hE2W_200" type="ego_car" route="E2W" depart="995" departSpeed="10" departLane="best"/>
   <vehicle id="hW2E_201" type="ego_car" route="W2E" depart="997" departSpeed="10" departLane="best"/>
   <vehicle id="hS2N_202" type="ego_car" route="S2N" depart="1001" departSpeed="10" departLane="best"/>
   <vehicle id="hS2N_203" type="ego_car" route="S2N" depart="1008" departSpeed="10" departLane="best"/>
   <vehicle id="E2W_204" type="ego_car" route="E2W" depart="1009" departSpeed="10" departLane="best"/>
   <vehicle id="hN2S_205" type="ego_car" route="N2S" depart="1011" departSpeed="10" departLane="best"/>
   <vehicle id="S2N_206" type="ego_car" route="S2N" depart="1015" departSpeed="10" departLane="best"/>
   <vehicle id="hW2E_207" type="ego_car" route="W2E" depart="1018" departSpeed="10" departLane="best"/>
   <vehicle id="W2E_208" type="ego_car" route="W2E" depart="1028" departSpeed="10" departLane="best"/>
   <vehicle id="hS2N_209" type="ego_car" route="S2N" depart="1028" departSpeed="10" departLane="best"/>
   <vehicle id="hE2W_210" type="ego_car" route="E2W" depart="1029" departSpeed="10" departLane="best"/>
   <vehicle id="hN2S_211" type="ego_car" route="N2S" depart="1032" departSpeed="10" departLane="best"/>
   <vehicle id="hW2E_212" type="ego_car" route="W2E" depart="1033" departSpeed="10" departLane="best"/>
   <vehicle id="hN2S_213" type="ego_car" route="N2S" depart="1037" departSpeed="10" departLane="best"/>
   <vehicle id="hE2W_214" type="ego_car" route="E2W" depart="1042" departSpeed="10" departLane="best"/>
   <vehicle id="hN2S_215" type="ego_car" route="N2S" depart="1044" departSpeed="10" departLane="best"/>
   <vehicle id="hE2W_216" type="ego_car" route="E2W" depart="1045" departSpeed="10" departLane="best"/>
   <vehicle id="hE2W_217" type="ego_car" route="E2W" depart="1046" departSpeed="10" departLane="best"/>
   <vehicle id="hE2W_218" type="ego_car" route="E2W" depart="1046" departSpeed="10" departLane="best"/>
   <vehicle id="S2N_219" type="ego_car" route="S2N" depart="1047" departSpeed="10" departLane="best"/>
   <vehicle id="hS2N_220" type="ego_car" route="S2N" depart="1047" departSpeed="10" departLane="best"/>
   <vehicle id="hN2S_221" type="ego_car" route="N2S" depart="1050" departSpeed="10" departLane="best"/>
   <vehicle id="hS2N_222" type="ego_car" route="S2N" depart="1056" departSpeed="10" departLane="best"/>
   <vehicle id="hS2N_223" type="ego_car" route="S2N" depart="1065" departSpeed="10" departLane="best"/>
   <vehicle id="hN2S_224" type="ego_car" route="N2S" depart="1067" departSpeed="10" departLane="best"/>
   <vehicle id="W2E_225" type="ego_car" route="W2E" depart="1072" departSpeed="10" departLane="best"/>
   <vehicle id="hW2E_226" type="ego_car" route="W2E" depart="1074" departSpeed="10" departLane="best"/>
   <vehicle id="hN2S_227" type="ego_car" route="N2S" depart="1084" departSpeed="10" departLane="best"/>
   <vehicle id="hS2N_228" type="ego_car" route="S2N" depart="1086" departSpeed="10" departLane="best"/>
   <vehicle id="N2S_229" type="ego_car" route="N2S" depart="1092" departSpeed="10" departLane="best"/>
   <vehicle id="hS2N_230" type="ego_car" route="S2N" depart="1100" departSpeed="10" departLane="best"/>
   <vehicle id="W2E_231" type="ego_car" route="W2E" depart="1103" departSpeed="10" departLane="best"/>
   <vehicle id="N2S_232" type="ego_car" route="N2S" depart="1112" departSpeed="10" departLane="best"/>
   <vehicle id="hS2N_233" type="ego_car" route="S2N" depart="1115" departSpeed="10" departLane="best"/>
   <vehicle id="hE2W_234" type="ego_car" route="E2W" depart="1127" departSpeed="10" departLane="best"/>
   <vehicle id="S2N_235" type="ego_car" route="S2N" depart="1127" departSpeed="10" departLane="best"/>
   <vehicle id="S2N_236" type="ego_car" route="S2N" depart="1135" departSpeed="10" departLane="best"/>
   <vehicle id="hW2E_237" type="ego_car" route="W2E" depart="1142" departSpeed="10" departLane="best"/>
   <vehicle id="W2E_238" type="ego_car" route="W2E" depart="1148" departSpeed="10" departLane="best"/>
   <vehicle id="hW2E_239" type="ego_car" route="W2E" depart="1148" departSpeed="10" departLane="best"/>
   <vehicle id="hE2W_240" type="ego_car" route="E2W" depart="1148" departSpeed="10" departLane="best"/>
   <vehicle id="hS2N_241" type="ego_car" route="S2N" depart="1151" departSpeed="10" departLane="best"/>
   <vehicle id="hN2S_242" type="ego_car" route="N2S" depart="1155" departSpeed="10" departLane="best"/>
   <vehicle id="hE2W_243" type="ego_car" route="E2W" depart="1157" departSpeed="10" departLane="best"/>
   <vehicle id="hS2N_244" type="ego_car" route="S2N" depart="1162" departSpeed="10" departLane="best"/>
   <vehicle id="S2N_245" type="ego_car" route="S2N" depart="1163" departSpeed="10" departLane="best"/>
   <vehicle id="hE2W_246" type="ego_car" route="E2W" depart="1168" departSpeed="10" departLane="best"/>
   <vehicle id="W2E_247" type="ego_car" route="W2E" depart="1171" departSpeed="10" departLane="best"/>
   <vehicle id="hS2N_248" type="ego_car" route="S2N" depart="1175" departSpeed="10" departLane="best"/>
   <vehicle id="hN2S_249" type="ego_car" route="N2S" depart="1191" departSpeed="10" departLane="best"/>
   <vehicle id="hN2S_250" type="ego_car" route="N2S" depart="1192" departSpeed="10" departLane="best"/>
   <vehicle id="hS2N_251" type="ego_car" route="S2N" depart="1194" departSpeed="10" departLane="best"/>
   <vehicle id="hW2E_252" type="ego_car" route="W2E" depart="1200" departSpeed="10" departLane="best"/>
   <vehicle id="S2N_253" type="ego_car" route="S2N" depart="1202" departSpeed="10" departLane="best"/>
   <vehicle id="hW2E_254" type="ego_car" route="W2E" depart="1204" departSpeed="10" departLane="best"/>
   <vehicle id="hS2N_255" type="ego_car" route="S2N" depart="1207" departSpeed="10" departLane="best"/>
   <vehicle id="hS2N_256" type="ego_car" route="S2N" depart="1207" departSpeed="10" departLane="best"/>
   <vehicle id="W2E_257" type="ego_car" route="W2E" depart="1210" departSpeed="10" departLane="best"/>
   <vehicle id="N2S_258" type="ego_car" route="N2S" depart="1211" departSpeed="10" departLane="best"/>
   <vehicle id="hN2S_259" type="ego_car" route="N2S" depart="1221" departSpeed="10" departLane="best"/>
   <vehicle id="hN2S_260" type="ego_car" route="N2S" depart="1229" departSpeed="10" departLane="best"/>
   <vehicle id="hN2S_261" type="ego_car" route="N2S" depart="1229" departSpeed="10" departLane="best"/>
   <vehicle id="hE2W_262" type="ego_car" route="E2W" depart="1229" departSpeed="10" departLane="best"/>
   <vehicle id="hE2W_263" type="ego_car" route="E2W" depart="1234" departSpeed="10" departLane="best"/>
   <vehicle id="E2W_264" type="ego_car" route="E2W" depart="1235" departSpeed="10" departLane="best"/>
   <vehicle id="hW2E_265" type="ego_car" route="W2E" depart="1263" departSpeed="10" departLane="best"/>
   <vehicle id="hS2N_266" type="ego_car" route="S2N" depart="1264" departSpeed="10" departLane="best"/>
   <vehicle id="hE2W_267" type="ego_car" route="E2W" depart="1278" departSpeed="10" departLane="best"/>
   <vehicle id="hN2S_268" type="ego_car" route="N2S" depart="1301" departSpeed="10" departLane="best"/>
   <vehicle id="hE2W_269" type="ego_car" route="E2W" depart="1302" departSpeed="10" departLane="best"/>
   <vehicle id="S2N_270" type="ego_car" route="S2N" depart="1315" departSpeed="10" departLane="best"/>
   <vehicle id="hN2S_271" type="ego_car" route="N2S" depart="1320" departSpeed="10" departLane="best"/>
   <vehicle id="hS2N_272" type="ego_car" route="S2N" depart="1324" departSpeed="10" departLane="best"/>
   <vehicle id="hN2S_273" type="ego_car" route="N2S" depart="1332" departSpeed="10" departLane="best"/>
   <vehicle id="hN2S_274" type="ego_car" route="N2S" depart="1338" departSpeed="10" departLane="best"/>
   <vehicle id="W2E_275" type="ego_car" route="W2E" depart="1340" departSpeed="10" departLane="best"/>
   <vehicle id="N2S_276" type="ego_car" route="N2S" depart="1362" departSpeed="10" departLane="best"/>
   <vehicle id="N2S_277" type="ego_car" route="N2S" depart="1372" departSpeed="10" departLane="best"/>
   <vehicle id="hS2N_278" type="ego_car" route="S2N" depart="1374" departSpeed="10" departLane="best"/>
   <vehicle id="hN2S_279" type="ego_car" route="N2S" depart="1386" departSpeed="10" departLane="best"/>
   <vehicle id="hE2W_280" type="ego_car" route="E2W" depart="1388" departSpeed="10" departLane="best"/>
   <vehicle id="hW2E_281" type="ego_car" route="W2E" depart="1390" departSpeed="10" departLane="best"/>
   <vehicle id="W2E_282" type="ego_car" route="W2E" depart="1391" departSpeed="10" departLane="best"/>
   <vehicle id="hW2E_283" type="ego_car" route="W2E" depart="1393" departSpeed="10" departLane="best"/>
   <vehicle id="hN2S_284" type="ego_car" route="N2S" depart="1394" departSpeed="10" departLane="best"/>
   <vehicle id="hS2N_285" type="ego_car" route="S2N" depart="1396" departSpeed="10" departLane="best"/>
   <vehicle id="hN2S_286" type="ego_car" route="N2S" depart="1406" departSpeed="10" departLane="best"/>
   <vehicle id="hE2W_287" type="ego_car" route="E2W" depart="1406" departSpeed="10" departLane="best"/>
   <vehicle id="N2S_288" type="ego_car" route="N2S" depart="1409" departSpeed="10" departLane="best"/>