<routes>

        <vType id = 'ego_car' vclass="evehicle" emissionClass="Energy" tau="1.5" accel="3.0" decel="3.0" color="#00FFFF" sigma="0.2" length="4.90" minGap="1.0" maxSpeed="20" carFollowing="IDM" guiShape="passenger"/>

        <route id="N2S" edges="NS -SN"/>
        <route id="S2N" edges="SN -NS"/>
        <route id="W2E" edges="WE -EW"/>
        <route id="E2W" edges="EW -WE"/>
   <vehicle id="hW2E_1" type="ego_car" route="W2E" depart="57" departSpeed="10" departLane="best"/>
   <vehicle id="S2N_2" type="ego_car" route="S2N" depart="58" departSpeed="10" departLane="best"/>
   <vehicle id="hS2N_3" type="ego_car" route="S2N" depart="90" departSpeed="10" departLane="best"/>
   <vehicle id="W2E_4" type="ego_car" route="W2E" depart="114" departSpeed="10" departLane="best"/>
   <vehicle id="hN2S_5" type="ego_car" route="N2S" depart="168" departSpeed="10" departLane="best"/>
   <vehicle id="hW2E_6" type="ego_car" route="W2E" depart="202" departSpeed="10" departLane="best"/>
   <vehicle id="hE2W_7" type="ego_car" route="E2W" depart="204" departSpeed="10" departLane="best"/>
   <vehicle id="W2E_8" type="ego_car" route="W2E" depart="230" departSpeed="10" departLane="best"/>
   <vehicle id="hS2N_9" type="ego_car" route="S2N" depart="231" departSpeed="10" departLane="best"/>
   <vehicle id="N2S_10" type="ego_car" route="N2S" depart="232" departSpeed="10" departLane="best"/>
   <vehicle id="N2S_11" type="ego_car" route="N2S" depart="236" departSpeed="10" departLane="best"/>
   <vehicle id="hE2W_12" type="ego_car" route="E2W" depart="263" departSpeed="10" departLane="best"/>
   <vehicle id="N2S_13" type="ego_car" route="N2S" depart="267" departSpeed="10" departLane="best"/>
   <vehicle id="W2E_14" type="ego_car" route="W2E" depart="268" departSpeed="10" departLane="best"/>
   <vehicle id="hE2W_15" type="ego_car" route="E2W" depart="278" departSpeed="10" departLane="best"/>
   <vehicle id="hW2E_16" type="ego_car" route="W2E" depart="310" departSpeed="10" departLane="best"/>
   <vehicle id="N2S_17" type="ego_car" route="N2S" depart="329" departSpeed="10" departLane="best"/>
   <vehicle id="hN2S_18" type="ego_car" route="N2S" depart="339" departSpeed="10" departLane="best"/>
   <vehicle id="hE2W_19" type="ego_car" route="E2W" depart="340" departSpeed="10" departLane="best"/>
   <vehicle id="W2E_20" type="ego_car" route="W2E" depart="341" departSpeed="10" departLane="best"/>
   <vehicle id="hS2N_21" type="ego_car" route="S2N" depart="343" departSpeed="10" departLane="best"/>
   <vehicle id="hN2S_22" type="ego_car" route="N2S" depart="350" departSpeed="10" departLane="best"/>
   <vehicle id="hN2S_23" type="ego_car" route="N2S" depart="364" departSpeed="10" departLane="best"/>
   <vehicle id="E2W_24" type="ego_car" route="E2W" depart="366" departSpeed="10" departLane="best"/>
   <vehicle id="hN2S_25" type="ego_car" route="N2S" depart="372" departSpeed="10" departLane="best"/>
   <vehicle id="hE2W_26" type="ego_car" route="E2W" depart="399" departSpeed="10" departLane="best"/>
   <vehicle id="N2S_27" type="ego_car" route="N2S" depart="400" departSpeed="10" departLane="best"/>
   <vehicle id="W2E_28" type="ego_car" route="W2E" depart="402" departSpeed="10" departLane="best"/>
   <vehicle id="hE2W_29" type="ego_car" route="E2W" depart="403" departSpeed="10" departLane="best"/>
   <vehicle id="hW2E_30" type="ego_car" route="W2E" depart="404" departSpeed="10" departLane="best"/>
   <vehicle id="hW2E_31" type="ego_car" route="W2E" depart="433" departSpeed="10" departLane="best"/>
   <vehicle id="hE2W_32" type="ego_car" route="E2W" depart="436" departSpeed="10" departLane="best"/>
   <vehicle id="hW2E_33" type="ego_car" route="W2E" depart="437" departSpeed="10" departLane="best"/>
   <vehicle id="hN2S_34" type="ego_car" route="N2S" depart="438" departSpeed="10" departLane="best"/>
   <vehicle id="hE2W_35" type="ego_car" route="E2W" depart="445" departSpeed="10" departLane="best"/>
   <vehicle id="hN2S_36" type="ego_car" route="N2S" depart="446" departSpeed="10" departLane="best"/>
   <vehicle id="hS2N_37" type="ego_car" route="S2N" depart="465" departSpeed="10" departLane="best"/>
   <vehicle id="hW2E_38" type="ego_car" route="W2E" depart="469" departSpeed="10" departLane="best"/>
   <vehicle id="hE2W_39" type="ego_car" route="E2W" depart="470" departSpeed="10" departLane="best"/>
   <vehicle id="hN2S_40" type="ego_car" route="N2S" depart="470" departSpeed="10" departLane="best"/>
   <vehicle id="hE2W_41" type="ego_car" route="E2W" depart="483" departSpeed="10" departLane="best"/>
   <vehicle id="N2S_42" type="ego_car" route="N2S" depart="484" departSpeed="10" departLane="best"/>
   <vehicle id="E2W_43" type="ego_car" route="E2W" depart="496" departSpeed="10" departLane="best"/>
   <vehicle id="hN2S_44" type="ego_car" route="N2S" depart="499" departSpeed="10" departLane="best"/>
   <vehicle id="N2S_45" type="ego_car" route="N2S" depart="500" departSpeed="10" departLane="best"/>
   <vehicle id="N2S_46" type="ego_car" route="N2S" depart="506" departSpeed="10" departLane="best"/>
   <vehicle id="N2S_47" type="ego_car" route="N2S" depart="507" departSpeed="10" departLane="best"/>
   <vehicle id="hS2N_48" type="ego_car" route="S2N" depart="508" departSpeed="10" departLane="best"/>
   <vehicle id="hN2S_49" type="ego_car" route="N2S" depart="509" departSpeed="10" departLane="best"/>
   <vehicle id="hN2S_50" type="ego_car" route="N2S" depart="509" departSpeed="10" departLane="best"/>
   <vehicle id="hW2E_51" type="ego_car" route="W2E" depart="514" departSpeed="10" departLane="best"/>
   <vehicle id="N2S_52" type="ego_car" route="N2S" depart="514" departSpeed="10" departLane="best"/>
   <vehicle id="hE2W_53" type="ego_car" route="E2W" depart="521" departSpeed="10" departLane="best"/>
   <vehicle id="hN2S_54" type="ego_car" route="N2S" depart="522" departSpeed="10" departLane="best"/>
   <vehicle id="hW2E_55" type="ego_car" route="W2E" depart="524" departSpeed="10" departLane="best"/>
   <vehicle id="hE2W_56" type="ego_car" route="E2W" depart="525" departSpeed="10" departLane="best"/>
   <vehicle id="E2W_57" type="ego_car" route="E2W" depart="539" departSpeed="10" departLane="best"/>
   <vehicle id="hN2S_58" type="ego_car" route="N2S" depart="539" departSpeed="10" departLane="best"/>
   <vehicle id="S2N_59" type="ego_car" route="S2N" depart="542" departSpeed="10" departLane="best"/>
   <vehicle id="hW2E_60" type="ego_car" route="W2E" depart="544" departSpeed="10" departLane="best"/>
   <vehicle id="hN2S_61" type="ego_car" route="N2S" depart="546" departSpeed="10" departLane="best"/>
   <vehicle id="hN2S_62" type="ego_car" route="N2S" depart="550" departSpeed="10" departLane="best"/>
   <vehicle id="hW2E_63" type="ego_car" route="W2E" depart="551" departSpeed="10" departLane="best"/>
   <vehicle id="hW2E_64" type="ego_car" route="W2E" depart="557" departSpeed="10" departLane="best"/>
   <vehicle id="hE2W_65" type="ego_car" route="E2W" depart="564" departSpeed="10" departLane="best"/>
   <vehicle id="hE2W_66" type="ego_car" route="E2W" depart="565" departSpeed="10" departLane="best"/>
   <vehicle id="W2E_67" type="ego_car" route="W2E" depart="569" departSpeed="10" departLane="best"/>
   <vehicle id="N2S_68" type="ego_car" route="N2S" depart="571" departSpeed="10" departLane="best"/>
   <vehicle id="hE2W_69" type="ego_car" route="E2W" depart="573" departSpeed="10" departLane="best"/>
   <vehicle id="hW2E_70" type="ego_car" route="W2E" depart="585" departSpeed="10" departLane="best"/>
   <vehicle id="S2N_71" type="ego_car" route="S2N" depart="586" departSpeed="10" departLane="best"/>
   <vehicle id="hE2W_72" type="ego_car" route="E2W" depart="588" departSpeed="10" departLane="best"/>
   <vehicle id="hW2E_73" type="ego_car" route="W2E" depart="596" departSpeed="10" departLane="best"/>
   <vehicle id="hW2E_74" type="ego_car" route="W2E" depart="602" departSpeed="10" departLane="best"/>
   <vehicle id="hE2W_75" type="ego_car" route="E2W" depart="605" departSpeed="10" departLane="best"/>
   <vehicle id="hS2N_76" type="ego_car" route="S2N" depart="607" departSpeed="10" departLane="best"/>
   <vehicle id="hN2S_77" type="ego_car" route="N2S" depart="609" departSpeed="10" departLane="best"/>
   <vehicle id="hN2S_78" type="ego_car" route="N2S" depart="610" departSpeed="10" departLane="best"/>
   <vehicle id="hE2W_79" type="ego_car" route="E2W" depart="614" departSpeed="10" departLane="best"/>
   <vehicle id="W2E_80" type="ego_car" route="W2E" depart="617" departSpeed="10" departLane="best"/>
   <vehicle id="hN2S_81" type="ego_car" route="N2S" depart="617" departSpeed="10" departLane="best"/>
   <vehicle id="hN2S_82" type="ego_car" route="N2S" depart="617" departSpeed="10" departLane="best"/>
   <vehicle id="hN2S_83" type="ego_car" route="N2S" depart="619" departSpeed="10" departLane="best"/>
   <vehicle id="hW2E_84" type="ego_car" route="W2E" depart="630" departSpeed="10" departLane="best"/>
   <vehicle id="hW2E_85" type="ego_car" route="W2E" depart="630" departSpeed="10" departLane="best"/>
   <vehicle id="E2W_86" type="ego_car" route="E2W" depart="634" departSpeed="10" departLane="best"/>
   <vehicle id="hE2W_87" type="ego_car" route="E2W" depart="639" departSpeed="10" departLane="best"/>
   <vehicle id="hN2S_88" type="ego_car" route="N2S" depart="652" departSpeed="10" departLane="best"/>
   <vehicle id="W2E_89" type="ego_car" route="W2E" depart="685" departSpeed="10" departLane="best"/>
   <vehicle id="S2N_90" type="ego_car" route="S2N" depart="693" departSpeed="10" departLane="best"/>
   <vehicle id="N2S_91" type="ego_car" route="N2S" depart="693" departSpeed="10" departLane="best"/>
   <vehicle id="hN2S_92" type="ego_car" route="N2S" depart="694" departSpeed="10" departLane="best"/>
   <vehicle id="hS2N_93" type="ego_car" route="S2N" depart="699" departSpeed="10" departLane="best"/>
   <vehicle id="hE2W_94" type="ego_car" route="E2W" depart="707" departSpeed="10" departLane="best"/>
   <vehicle id="W2E_95" type="ego_car" route="W2E" depart="710" departSpeed="10" departLane="best"/>
   <vehicle id="hE2W_96" type="ego_car" route="E2W" depart="712" departSpeed="10" departLane="best"/>
   <vehicle id="hW2E_97" type="ego_car" route="W2E" depart="717" departSpeed="10" departLane="best"/>
   <vehicle id="hN2S_98" type="ego_car" route="N2S" depart="717" departSpeed="10" departLane="best"/>
   <vehicle id="hW2E_99" type="ego_car" route="W2E" depart="720" departSpeed="10" departLane="best"/>
   <vehicle id="hN2S_100" type="ego_car" route="N2S" depart="733" departSpeed="10" departLane="best"/>
   <vehicle id="N2S_101" type="ego_car" route="N2S" depart="734" departSpeed="10" departLane="best"/>
   <vehicle id="hE2W_102" type="ego_car" route="E2W" depart="735" departSpeed="10" departLane="best"/>
   <vehicle id="hS2N_103" type="ego_car" route="S2N" depart="736" departSpeed="10" departLane="best"/>
   <vehicle id="hW2E_104" type="ego_car" route="W2E" depart="738" departSpeed="10" departLane="best"/>
   <vehicle id="hW2E_105" type="ego_car" route="W2E" depart="741" departSpeed="10" departLane="best"/>
   <vehicle id="hS2N_106" type="ego_car" route="S2N" depart="747" departSpeed="10" departLane="best"/>
   <vehicle id="S2N_107" type="ego_car" route="S2N" depart="747" departSpeed="10" departLane="best"/>
   <vehicle id="hS2N_108" type="ego_car" route="S2N" depart="748" departSpeed="10" departLane="best"/>
   <vehicle id="hW2E_109" type="ego_car" route="W2E" depart="753" departSpeed="10" departLane="best"/>
   <vehicle id="hS2N_110" type="ego_car" route="S2N" depart="755" departSpeed="10" departLane="best"/>
   <vehicle id="hE2W_111" type="ego_car" route="E2W" depart="758" departSpeed="10" departLane="best"/>
   <vehicle id="hW2E_112" type="ego_car" route="W2E" depart="758" departSpeed="10" departLane="best"/>
   <vehicle id="hE2W_113" type="ego_car" route="E2W" depart="766" departSpeed="10" departLane="best"/>
   <vehicle id="W2E_114" type="ego_car" route="W2E" depart="767" departSpeed="10" departLane="best"/>
   <vehicle id="hE2W_115" type="ego_car" route="E2W" depart="787" departSpeed="10" departLane="best"/>
   <vehicle id="hS2N_116" type="ego_car" route="S2N" depart="790" departSpeed="10" departLane="best"/>
   <vehicle id="hW2E_117" type="ego_car" route="W2E" depart="793" departSpeed="10" departLane="best"/>
   <vehicle id="hS2N_118" type="ego_car" route="S2N" depart="796" departSpeed="10" departLane="best"/>
   <vehicle id="hN2S_119" type="ego_car" route="N2S" depart="799" departSpeed="10" departLane="best"/>
   <vehicle id="N2S_120" type="ego_car" route="N2S" depart="800" departSpeed="10" departLane="best"/>
   <vehicle id="hW2E_121" type="ego_car" route="W2E" depart="808" departSpeed="10" departLane="best"/>
   <vehicle id="hN2S_122" type="ego_car" route="N2S" depart="809" departSpeed="10" departLane="best"/>
   <vehicle id="hE2W_123" type="ego_car" route="E2W" depart="811" departSpeed="10" departLane="best"/>
   <vehicle id="hW2E_124" type="ego_car" route="W2E" depart="813" departSpeed="10" departLane="best"/>
   <vehicle id="E2W_125" type="ego_car" route="E2W" depart="815" departSpeed="10" departLane="best"/>
   <vehicle id="hW2E_126" type="ego_car" route="W2E" depart="817" departSpeed="10" departLane="best"/>
   <vehicle id="N2S_127" type="ego_car" route="N2S" depart="818" departSpeed="10" departLane="best"/>
   <vehicle id="hW2E_128" type="ego_car" route="W2E" depart="826" departSpeed="10" departLane="best"/>
   <vehicle id="hN2S_129" type="ego_car" route="N2S" depart="830" departSpeed="10" departLane="best"/>
   <vehicle id="hE2W_130" type="ego_car" route="E2W" depart="839" departSpeed="10" departLane="best"/>
   <vehicle id="hE2W_131" type="ego_car" route="E2W" depart="841" departSpeed="10" departLane="best"/>
   <vehicle id="W2E_132" type="ego_car" route="W2E" depart="848" departSpeed="10" departLane="best"/>
   <vehicle id="hN2S_133" type="ego_car" route="N2S" depart="849" departSpeed="10" departLane="best"/>
   <vehicle id="hW2E_134" type="ego_car" route="W2E" depart="852" departSpeed="10" departLane="best"/>
   <vehicle id="N2S_135" type="ego_car" route="N2S" depart="866" departSpeed="10" departLane="best"/>
   <vehicle id="hE2W_136" type="ego_car" route="E2W" depart="867" departSpeed="10" departLane="best"/>
   <vehicle id="W2E_137" type="ego_car" route="W2E" depart="870" departSpeed="10" departLane="best"/>
   <vehicle id="hN2S_138" type="ego_car" route="N2S" depart="870" departSpeed="10" departLane="best"/>
   <vehicle id="hW2E_139" type="ego_car" route="W2E" depart="873" departSpeed="10" departLane="best"/>
   <vehicle id="S2N_140" type="ego_car" route="S2N" depart="877" departSpeed="10" departLane="best"/>
   <vehicle id="hN2S_141" type="ego_car" route="N2S" depart="886" departSpeed="10" departLane="best"/>
   <vehicle id="hN2S_142" type="ego_car" route="N2S" depart="889" departSpeed="10" departLane="best"/>
   <vehicle id="hE2W_143" type="ego_car" route="E2W" depart="897" departSpeed="10" departLane="best"/>
   <vehicle id="hW2E_144" type="ego_car" route="W2E" depart="899" departSpeed="10" departLane="best"/>
   <vehicle id="hN2S_145" type="ego_car" route="N2S" depart="903" departSpeed="10" departLane="best"/>
   <vehicle id="W2E_146" type="ego_car" route="W2E" depart="904" departSpeed="10" departLane="best"/>
   <vehicle id="hN2S_147" type="ego_car" route="N2S" depart="907" departSpeed="10" departLane="best"/>
   <vehicle id="hW2E_148" type="ego_car" route="W2E" depart="913" departSpeed="10" departLane="best"/>
   <vehicle id="W2E_149" type="ego_car" route="W2E" depart="914" departSpeed="10" departLane="best"/>
   <vehicle id="hN2S_150" type="ego_car" route="N2S" depart="917" departSpeed="10" departLane="best"/>
   <vehicle id="hE2W_151" type="ego_car" route="E2W" depart="919" departSpeed="10" departLane="best"/>
   <vehicle id="hS2N_152" type="ego_car" route="S2N" depart="922" departSpeed="10" departLane="best"/>
   <vehicle id="hN2S_153" type="ego_car" route="N2S" depart="922" departSpeed="10" departLane="best"/>
   <vehicle id="hE2W_154" type="ego_car" route="E2W" depart="924" departSpeed="10" departLane="best"/>
   <vehicle id="E2W_155" type="ego_car" route="E2W" depart="926" departSpeed="10" departLane="best"/>
   <vehicle id="E2W_156" type="ego_car" route="E2W" depart="930" departSpeed="10" departLane="best"/>
   <vehicle id="hW2E_157" type="ego_car" route="W2E" depart="935" departSpeed="10" departLane="best"/>
   <vehicle id="hE2W_158" type="ego_car" route="E2W" depart="958" departSpeed="10" departLane="best"/>
   <vehicle id="W2E_159" type="ego_car" route="W2E" depart="965" departSpeed="10" departLane="best"/>
   <vehicle id="S2N_160" type="ego_car" route="S2N" depart="967" departSpeed="10" departLane="best"/>
   <vehicle id="N2S_161" type="ego_car" route="N2S" depart="969" departSpeed="10" departLane="best"/>
   <vehicle id="hE2W_162" type="ego_car" route="E2W" depart="970" departSpeed="10" departLane="best"/>
   <vehicle id="S2N_163" type="ego_car" route="S2N" depart="971" departSpeed="10" departLane="best"/>
   <vehicle id="hW2E_164" type="ego_car" route="W2E" depart="973" departSpeed="10" departLane="best"/>
   <vehicle id="hW2E_165" type="ego_car" route="W2E" depart="974" departSpeed="10" departLane="best"/>
   <vehicle id="S2N_166" type="ego_car" route="S2N" depart="979" departSpeed="10" departLane="best"/>
   <vehicle id="S2N_167" type="ego_car" route="S2N" depart="987" departSpeed="10" departLane="best"/>
   <vehicle id="hW2E_168" type="ego_car" route="W2E" depart="989" departSpeed="10" departLane="best"/>
   <vehicle id="W2E_169" type="ego_car" route="W2E" depart="1002" departSpeed="10" departLane="best"/>
   <vehicle id="W2E_170" type="ego_car" route="W2E" depart="1003" departSpeed="10" departLane="best"/>
   <vehicle id="hE2W_171" type="ego_car" route="E2W" depart="1004" departSpeed="10" departLane="best"/>
   <vehicle id="hW2E_172" type="ego_car" route="W2E" depart="1006" departSpeed="10" departLane="best"/>
   <vehicle id="hE2W_173" type="ego_car" route="E2W" depart="1012" departSpeed="10" departLane="best"/>
   <vehicle id="hS2N_174" type="ego_car" route="S2N" depart="1013" departSpeed="10" departLane="best"/>
   <vehicle id="hS2N_175" type="ego_car" route="S2N" depart="1015" departSpeed="10" departLane="best"/>
   <vehicle id="N2S_176" type="ego_car" route="N2S" depart="1020" departSpeed="10" departLane="best"/>
   <vehicle id="N2S_177" type="ego_car" route="N2S" depart="1024" departSpeed="10" departLane="best"/>
   <vehicle id="hE2W_178" type="ego_car" route="E2W" depart="1038" departSpeed="10" departLane="best"/>
   <vehicle id="hW2E_179" type="ego_car" route="W2E" depart="1039" departSpeed="10" departLane="best"/>
   <vehicle id="hE2W_180" type="ego_car" route="E2W" depart="1044" departSpeed="10" departLane="best"/>
   <vehicle id="hW2E_181" type="ego_car" route="W2E" depart="1044" departSpeed="10" departLane="best"/>
   <vehicle id="hS2N_182" type="ego_car" route="S2N" depart="1047" departSpeed="10" departLane="best"/>
   <vehicle id="hE2W_183" type="ego_car" route="E2W" depart="1052" departSpeed="10" departLane="best"/>
   <vehicle id="W2E_184" type="ego_car" route="W2E" depart="1052" departSpeed="10" departLane="best"/>
   <vehicle id="hW2E_185" type="ego_car" route="W2E" depart="1072" departSpeed="10" departLane="best"/>
   <vehicle id="hS2N_186" type="ego_car" route="S2N" depart="1075" departSpeed="10" departLane="best"/>
   <vehicle id="hW2E_187" type="ego_car" route="W2E" depart="1079" departSpeed="10" departLane="best"/>
   <vehicle id="E2W_188" type="ego_car" route="E2W" depart="1081" departSpeed="10" departLane="best"/>
   <vehicle id="N2S_189" type="ego_car" route="N2S" depart="1082" departSpeed="10" departLane="best"/>
   <vehicle id="hS2N_190" type="ego_car" route="S2N" depart="1088" departSpeed="10" departLane="best"/>
   <vehicle id="hN2S_191" type="ego_car" route="N2S" depart="1089" departSpeed="10" departLane="best"/>
   <vehicle id="hW2E_192" type="ego_car" route="W2E" depart="1092" departSpeed="10" departLane="best"/>
   <vehicle id="N2S_193" type="ego_car" route="N2S" depart="1100" departSpeed="10" departLane="best"/>
   <vehicle id="hN2S_194" type="ego_car" route="N2S" depart="1105" departSpeed="10" departLane="best"/>
   <vehicle id="hN2S_195" type="ego_car" route="N2S" depart="1110" departSpeed="10" departLane="best"/>
   <vehicle id="hE2W_196" type="ego_car" route="E2W" depart="1114" departSpeed="10" departLane="best"/>
   <vehicle id="hN2S_197" type="ego_car" route="N2S" depart="1116" departSpeed="10" departLane="best"/>
   <vehicle id="N2S_198" type="ego_car" route="N2S" depart="1117" departSpeed="10" departLane="best"/>
   <vehicle id="hW2E_199" type="ego_car" route="W2E" depart="1117" departSpeed="10" departLane="best"/>
   <vehicle id="hW2E_200" type="ego_car" route="W2E" depart="1119" departSpeed="10" departLane="best"/>
   <vehicle id="hN2S_201" type="ego_car" route="N2S" depart="1121" departSpeed="10" departLane="best"/>
   <vehicle id="hE2W_202" type="ego_car" route="E2W" depart="1130" departSpeed="10" departLane="best"/>
   <vehicle id="hS2N_203" type="ego_car" route="S2N" depart="1133" departSpeed="10" departLane="best"/>
   <vehicle id="S2N_204" type="ego_car" route="S2N" depart="1140" departSpeed="10" departLane="best"/>
   <vehicle id="hN2S_205" type="ego_car" route="N2S" depart="1140" departSpeed="10" departLane="best"/>
   <vehicle id="W2E_206" type="ego_car" route="W2E" depart="1141" departSpeed="10" departLane="best"/>
   <vehicle id="hW2E_207" type="ego_car" route="W2E" depart="1141" departSpeed="10" departLane="best"/>
   <vehicle id="N2S_208" type="ego_car" route="N2S" depart="1150" departSpeed="10" departLane="best"/>
   <vehicle id="hE2W_209" type="ego_car" route="E2W" depart="1153" departSpeed="10" departLane="best"/>
   <vehicle id="hN2S_210" type="ego_car" route="N2S" depart="1154" departSpeed="10" departLane="best"/>
   <vehicle id="hE2W_211" type="ego_car" route="E2W" depart="1159" departSpeed="10" departLane="best"/>
   <vehicle id="hE2W_212" type="ego_car" route="E2W" depart="1162" departSpeed="10" departLane="best"/>
   <vehicle id="hE2W_213" type="ego_car" route="E2W" depart="1167" departSpeed="10" departLane="best"/>
   <vehicle id="hE2W_214" type="ego_car" route="E2W" depart="1168" departSpeed="10" departLane="best"/>
   <vehicle id="hS2N_215" type="ego_car" route="S2N" depart="1171" departSpeed="10" departLane="best"/>
   <vehicle id="hW2E_216" type="ego_car" route="W2E" depart="1175" departSpeed="10" departLane="best"/>
   <vehicle id="hS2N_217" type="ego_car" route="S2N" depart="1183" departSpeed="10" departLane="best"/>
   <vehicle id="hW2E_218" type="ego_car" route="W2E" depart="1190" departSpeed="10" departLane="best"/>
   <vehicle id="E2W_219" type="ego_car" route="E2W" depart="1195" departSpeed="10" departLane="best"/>
   <vehicle id="hE2W_220" type="ego_car" route="E2W" depart="1196" departSpeed="10" departLane="best"/>
   <vehicle id="hE2W_221" type="ego_car" route="E2W" depart="1207" departSpeed="10" departLane="best"/>
   <vehicle id="hE2W_222" type="ego_car" route="E2W" depart="1211" departSpeed="10" departLane="best"/>
   <vehicle id="hE2W_223" type="ego_car" route="E2W" depart="1212" departSpeed="10" departLane="best"/>
   <vehicle id="hW2E_224" type="ego_car" route="W2E" depart="1213" departSpeed="10" departLane="best"/>
   <vehicle id="W2E_225" type="ego_car" route="W2E" depart="1219" departSpeed="10" departLane="best"/>
   <vehicle id="hS2N_226" type="ego_car" route="S2N" depart="1221" departSpeed="10" departLane="best"/>
   <vehicle id="hE2W_227" type="ego_car" route="E2W" depart="1222" departSpeed="10" departLane="best"/>
   <vehicle id="hN2S_228" type="ego_car" route="N2S" depart="1226" departSpeed="10" departLane="best"/>
   <vehicle id="W2E_229" type="ego_car" route="W2E" depart="1227" departSpeed="10" departLane="best"/>
   <vehicle id="hS2N_230" type="ego_car" route="S2N" depart="1236" departSpeed="10" departLane="best"/>
   <vehicle id="N2S_231" type="ego_car" route="N2S" depart="1236" departSpeed="10" departLane="best"/>
   <vehicle id="N2S_232" type="ego_car" route="N2S" depart="1237" departSpeed="10" departLane="best"/>
   <vehicle id="hW2E_233" type="ego_car" route="W2E" depart="1237" departSpeed="10" departLane="best"/>
   <vehicle id="hE2W_234" type="ego_car" route="E2W" depart="1241" departSpeed="10" departLane="best"/>
   <vehicle id="W2E_235" type="ego_car" route="W2E" depart="1242" departSpeed="10" departLane="best"/>
   <vehicle id="E2W_236" type="ego_car" route="E2W" depart="1247" departSpeed="10" departLane="best"/>
   <vehicle id="hN2S_237" type="ego_car" route="N2S" depart="1247" departSpeed="10" departLane="best"/>
   <vehicle id="S2N_238" type="ego_car" route="S2N" depart="1249" departSpeed="10" departLane="best"/>
   <vehicle id="hE2W_239" type="ego_car" route="E2W" depart="1250" departSpeed="10" departLane="best"/>
   <vehicle id="hS2N_240" type="ego_car" route="S2N" depart="1255" departSpeed="10" departLane="best"/>
   <vehicle id="hE2W_241" type="ego_car" route="E2W" depart="1268" departSpeed="10" departLane="best"/>
   <vehicle id="hN2S_242" type="ego_car" route="N2S" depart="1275" departSpeed="10" departLane="best"/>
   <vehicle id="hN2S_243" type="ego_car" route="N2S" depart="1278" departSpeed="10" departLane="best"/>
   <vehicle id="hN2S_244" type="ego_car" route="N2S" depart="1285" departSpeed="10" departLane="best"/>
   <vehicle id="W2E_245" type="ego_car" route="W2E" depart="1286" departSpeed="10" departLane="best"/>
   <vehicle id="hS2N_246" type="ego_car" route="S2N" depart="1297" departSpeed="10" departLane="best"/>
   <vehicle id="E2W_247" type="ego_car" route="E2W" depart="1299" departSpeed="10" departLane="best"/>
   <vehicle id="hN2S_248" type="ego_car" route="N2S" depart="1300" departSpeed="10" departLane="best"/>
   <vehicle id="hN2S_249" type="ego_car" route="N2S" depart="1303" departSpeed="10" departLane="best"/>
   <vehicle id="hE2W_250" type="ego_car" route="E2W" depart="1304" departSpeed="10" departLane="best"/>
   <vehicle id="hS2N_251" type="ego_car" route="S2N" depart="1310" departSpeed="10" departLane="best"/>
   <vehicle id="hN2S_252" type="ego_car" route="N2S" depart="1313" departSpeed="10" departLane="best"/>
   <vehicle id="N2S_253" type="ego_car" route="N2S" depart="1319" departSpeed="10" departLane="best"/>
   <vehicle id="hW2E_254" type="ego_car" route="W2E" depart="1325" departSpeed="10" departLane="best"/>
   <vehicle id="hN2S_255" type="ego_car" route="N2S" depart="1326" departSpeed="10" departLane="best"/>
   <vehicle id="hN2S_256" type="ego_car" route="N2S" depart="1329" departSpeed="10" departLane="best"/>
   <vehicle id="W2E_257" type="ego_car" route="W2E" depart="1336" departSpeed="10" departLane="best"/>
   <vehicle id="E2W_258" type="ego_car" route="E2W" depart="1341" departSpeed="10" departLane="best"/>
   <vehicle id="hN2S_259" type="ego_car" route="N2S" depart="1347" departSpeed="10" departLane="best"/>
   <vehicle id="hS2N_260" type="ego_car" route="S2N" depart="1348" departSpeed="10" departLane="best"/>
   <vehicle id="hE2W_261" type="ego_car" route="E2W" depart="1352" departSpeed="10" departLane="best"/>
   <vehicle id="hN2S_262" type="ego_car" route="N2S" depart="1354" departSpeed="10" departLane="best"/>
   <vehicle id="hN2S_263" type="ego_car" route="N2S" depart="1360" departSpeed="10" departLane="best"/>
   <vehicle id="W2E_264" type="ego_car" route="W2E" depart="1365" departSpeed="10" departLane="best"/>
   <vehicle id="hN2S_265" type="ego_car" route="N2S" depart="1367" departSpeed="10" departLane="best"/>
   <vehicle id="hW2E_266" type="ego_car" route="W2E" depart="1370" departSpeed="10" departLane="best"/>
   <vehicle id="hW2E_267" type="ego_car" route="W2E" depart="1371" departSpeed="10" departLane="best"/>
   <vehicle id="hW2E_268" type="ego_car" route="W2E" depart="1374" departSpeed="10" departLane="best"/>
   <vehicle id="hS2N_269" type="ego_car" route="S2N" depart="1376" departSpeed="10" departLane="best"/>
   <vehicle id="N2S_270" type="ego_car" route="N2S" depart="1377" departSpeed="10" departLane="best"/>
   <vehicle id="hS2N_271" type="ego_car" route="S2N" depart="1381" departSpeed="10" departLane="best"/>
   <vehicle id="hS2N_272" type="ego_car" route="S2N" depart="1386" departSpeed="10" departLane="best"/>
   <vehicle id="hE2W_273" type="ego_car" route="E2W" depart="1389" departSpeed="10" departLane="best"/>
   <vehicle id="hN2S_274" type="ego_car" route="N2S" depart="1392" departSpeed="10" departLane="best"/>
   <vehicle id="E2W_275" type="ego_car" route="E2W" depart="1393" departSpeed="10" departLane="best"/>
   <vehicle id="S2N_276" type="ego_car" route="S2N" depart="1395" departSpeed="10" departLane="best"/>
   <vehicle id="S2N_277" type="ego_car" route="S2N" depart="1395" departSpeed="10" departLane="best"/>
   <vehicle id="hW2E_278" type="ego_car" route="W2E" depart="1404" departSpeed="10" departLane="best"/>
   <vehicle id="hN2S_279" type="ego_car" route="N2S" depart="1405" departSpeed="10" departLane="best"/>
   <vehicle id="hW2E_280" type="ego_car" route="W2E" depart="1408" departSpeed="10" departLane="best"/>
   <vehicle id="hE2W_281" type="ego_car" route="E2W" depart="1416" departSpeed="10" departLane="best"/>
   <vehicle id="E2W_282" type="ego_car" route="E2W" depart="1424" departSpeed="10" departLane="best"/>
   <vehicle id="hN2S_283" type="ego_car" route="N2S" depart="1427" departSpeed="10" departLane="best"/>
   <vehicle id="hN2S_284" type="ego_car" route="N2S" depart="1430" departSpeed="10" departLane="best"/>
   <vehicle id="hE2W_285" type="ego_car" route="E2W" depart="1442" departSpeed="10" departLane="best"/>
   <vehicle id="hW2E_286" type="ego_car" route="W2E" depart="1443" departSpeed="10" departLane="best"/>
   <vehicle id="hS2N_287" type="ego_car" route="S2N" depart="1446" departSpeed="10" departLane="best"/>
   <vehicle id="E2W_288" type="ego_car" route="E2W" depart="1447" departSpeed="10" departLane="best"/>