<routes>

        <vType id = 'ego_car' vclass="evehicle" emissionClass="Energy" tau="1.5" accel="3.0" decel="3.0" color="#00FFFF" sigma="0.2" length="4.90" minGap="1.0" maxSpeed="20" carFollowing="IDM" guiShape="passenger"/>

        <route id="N2S" edges="NS -SN"/>
        <route id="S2N" edges="SN -NS"/>
        <route id="W2E" edges="WE -EW"/>
        <route id="E2W" edges="EW -WE"/>
   <vehicle id="hS2N_1" type="ego_car" route="S2N" depart="94" departSpeed="10" departLane="best"/>
   <vehicle id="N2S_2" type="ego_car" route="N2S" depart="95" departSpeed="10" departLane="best"/>
   <vehicle id="hW2E_3" type="ego_car" route="W2E" depart="123" departSpeed="10" departLane="best"/>
   <vehicle id="N2S_4" type="ego_car" route="N2S" depart="166" departSpeed="10" departLane="best"/>
   <vehicle id="hE2W_5" type="ego_car" route="E2W" depart="170" departSpeed="10" departLane="best"/>
   <vehicle id="hN2S_6" type="ego_car" route="N2S" depart="214" departSpeed="10" departLane="best"/>
   <vehicle id="hE2W_7" type="ego_car" route="E2W" depart="231" departSpeed="10" departLane="best"/>
   <vehicle id="N2S_8" type="ego_car" route="N2S" depart="240" departSpeed="10" departLane="best"/>
   <vehicle id="hE2W_9" type="ego_car" route="E2W" depart="251" departSpeed="10" departLane="best"/>
   <vehicle id="N2S_10" type="ego_car" route="N2S" depart="257" departSpeed="10" departLane="best"/>
   <vehicle id="E2W_11" type="ego_car" route="E2W" depart="262" departSpeed="10" departLane="best"/>
   <vehicle id="hS2N_12" type="ego_car" route="S2N" depart="266" departSpeed="10" departLane="best"/>
   <vehicle id="W2E_13" type="ego_car" route="W2E" depart="283" departSpeed="10" departLane="best"/>
   <vehicle id="N2S_14" type="ego_car" route="N2S" depart="287" departSpeed="10" departLane="best"/>
   <vehicle id="hE2W_15" type="ego_car" route="E2W" depart="288" departSpeed="10" departLane="best"/>
   <vehicle id="hE2W_16" type="ego_car" route="E2W" depart="290" departSpeed="10" departLane="best"/>
   <vehicle id="W2E_17" type="ego_car" route="W2E" depart="296" departSpeed="10" departLane="best"/>
   <vehicle id="hW2E_18" type="ego_car" route="W2E" depart="302" departSpeed="10" departLane="best"/>
   <vehicle id="hW2E_19" type="ego_car" route="W2E" depart="305" departSpeed="10" departLane="best"/>
   <vehicle id="W2E_20" type="ego_car" route="W2E" depart="317" departSpeed="10" departLane="best"/>
   <vehicle id="hW2E_21" type="ego_car" route="W2E" depart="320" departSpeed="10" departLane="best"/>
   <vehicle id="hE2W_22" type="ego_car" route="E2W" depart="324" departSpeed="10" departLane="best"/>
   <vehicle id="hS2N_23" type="ego_car" route="S2N" depart="361" departSpeed="10" departLane="best"/>
   <vehicle id="S2N_24" type="ego_car" route="S2N" depart="372" departSpeed="10" departLane="best"/>
   <vehicle id="hN2S_25" type="ego_car" route="N2S" depart="388" departSpeed="10" departLane="best"/>
   <vehicle id="hE2W_26" type="ego_car" route="E2W" depart="395" departSpeed="10" departLane="best"/>
   <vehicle id="E2W_27" type="ego_car" route="E2W" depart="398" departSpeed="10" departLane="best"/>
   <vehicle id="N2S_28" type="ego_car" route="N2S" depart="400" departSpeed="10" departLane="best"/>
   <vehicle id="hW2E_29" type="ego_car" route="W2E" depart="407" departSpeed="10" departLane="best"/>
   <vehicle id="hW2E_30" type="ego_car" route="W2E" depart="413" departSpeed="10" departLane="best"/>
   <vehicle id="hE2W_31" type="ego_car" route="E2W" depart="423" departSpeed="10" departLane="best"/>
   <vehicle id="hS2N_32" type="ego_car" route="S2N" depart="426" departSpeed="10" departLane="best"/>
   <vehicle id="hW2E_33" type="ego_car" route="W2E" depart="435" departSpeed="10" departLane="best"/>
   <vehicle id="hS2N_34" type="ego_car" route="S2N" depart="444" departSpeed="10" departLane="best"/>
   <vehicle id="hN2S_35" type="ego_car" route="N2S" depart="447" departSpeed="10" departLane="best"/>
   <vehicle id="hE2W_36" type="ego_car" route="E2W" depart="450" departSpeed="10" departLane="best"/>
   <vehicle id="hW2E_37" type="ego_car" route="W2E" depart="452" departSpeed="10" departLane="best"/>
   <vehicle id="hN2S_38" type="ego_car" route="N2S" depart="459" departSpeed="10" departLane="best"/>
   <vehicle id="hN2S_39" type="ego_car" route="N2S" depart="466" departSpeed="10" departLane="best"/>
   <vehicle id="hE2W_40" type="ego_car" route="E2W" depart="466" departSpeed="10" departLane="best"/>
   <vehicle id="hS2N_41" type="ego_car" route="S2N" depart="471" departSpeed="10" departLane="best"/>
   <vehicle id="W2E_42" type="ego_car" route="W2E" depart="471" departSpeed="10" departLane="best"/>
   <vehicle id="S2N_43" type="ego_car" route="S2N" depart="473" departSpeed="10" departLane="best"/>
   <vehicle id="hW2E_44" type="ego_car" route="W2E" depart="475" departSpeed="10" departLane="best"/>
   <vehicle id="W2E_45" type="ego_car" route="W2E" depart="479" departSpeed="10" departLane="best"/>
   <vehicle id="W2E_46" type="ego_car" route="W2E" depart="480" departSpeed="10" departLane="best"/>
   <vehicle id="E2W_47" type="ego_car" route="E2W" depart="481" departSpeed="10" departLane="best"/>
   <vehicle id="hE2W_48" type="ego_car" route="E2W" depart="486" departSpeed="10" departLane="best"/>
   <vehicle id="hW2E_49" type="ego_car" route="W2E" depart="486" departSpeed="10" departLane="best"/>
   <vehicle id="hE2W_50" type="ego_car" route="E2W" depart="487" departSpeed="10" departLane="best"/>
   <vehicle id="hN2S_51" type="ego_car" route="N2S" depart="489" departSpeed="10" departLane="best"/>
   <vehicle id="S2N_52" type="ego_car" route="S2N" depart="491" departSpeed="10" departLane="best"/>
   <vehicle id="hW2E_53" type="ego_car" route="W2E" depart="499" departSpeed="10" departLane="best"/>
   <vehicle id="hS2N_54" type="ego_car" route="S2N" depart="505" departSpeed="10" departLane="best"/>
   <vehicle id="hN2S_55" type="ego_car" route="N2S" depart="507" departSpeed="10" departLane="best"/>
   <vehicle id="hW2E_56" type="ego_car" route="W2E" depart="511" departSpeed="10" departLane="best"/>
   <vehicle id="E2W_57" type="ego_car" route="E2W" depart="516" departSpeed="10" departLane="best"/>
   <vehicle id="hS2N_58" type="ego_car" route="S2N" depart="520" departSpeed="10" departLane="best"/>
   <vehicle id="S2N_59" type="ego_car" route="S2N" depart="521" departSpeed="10" departLane="best"/>
   <vehicle id="hN2S_60" type="ego_car" route="N2S" depart="522" departSpeed="10" departLane="best"/>
   <vehicle id="hE2W_61" type="ego_car" route="E2W" depart="522" departSpeed="10" departLane="best"/>
   <vehicle id="hS2N_62" type="ego_car" route="S2N" depart="523" departSpeed="10" departLane="best"/>
   <vehicle id="hN2S_63" type="ego_car" route="N2S" depart="535" departSpeed="10" departLane="best"/>
   <vehicle id="hE2W_64" type="ego_car" route="E2W" depart="540" departSpeed="10" departLane="best"/>
   <vehicle id="hW2E_65" type="ego_car" route="W2E" depart="544" departSpeed="10" departLane="best"/>
   <vehicle id="hN2S_66" type="ego_car" route="N2S" depart="557" departSpeed="10" departLane="best"/>
   <vehicle id="N2S_67" type="ego_car" route="N2S" depart="571" departSpeed="10" departLane="best"/>
   <vehicle id="W2E_68" type="ego_car" route="W2E" depart="579" departSpeed="10" departLane="best"/>
   <vehicle id="hW2E_69" type="ego_car" route="W2E" depart="580" departSpeed="10" departLane="best"/>
   <vehicle id="hN2S_70" type="ego_car" route="N2S" depart="585" departSpeed="10" departLane="best"/>
   <vehicle id="W2E_71" type="ego_car" route="W2E" depart="598" departSpeed="10" departLane="best"/>
   <vehicle id="hN2S_72" type="ego_car" route="N2S" depart="603" departSpeed="10" departLane="best"/>
   <vehicle id="hW2E_73" type="ego_car" route="W2E" depart="610" departSpeed="10" departLane="best"/>
   <vehicle id="hW2E_74" type="ego_car" route="W2E" depart="633" departSpeed="10" departLane="best"/>
   <vehicle id="hW2E_75" type="ego_car" route="W2E" depart="652" departSpeed="10" departLane="best"/>
   <vehicle id="hN2S_76" type="ego_car" route="N2S" depart="660" departSpeed="10" departLane="best"/>
   <vehicle id="hE2W_77" type="ego_car" route="E2W" depart="661" departSpeed="10" departLane="best"/>
   <vehicle id="hE2W_78" type="ego_car" route="E2W" depart="661" departSpeed="10" departLane="best"/>
   <vehicle id="hS2N_79" type="ego_car" route="S2N" depart="667" departSpeed="10" departLane="best"/>
   <vehicle id="W2E_80" type="ego_car" route="W2E" depart="669" departSpeed="10" departLane="best"/>
   <vehicle id="hN2S_81" type="ego_car" route="N2S" depart="670" departSpeed="10" departLane="best"/>
   <vehicle id="hE2W_82" type="ego_car" route="E2W" depart="679" departSpeed="10" departLane="best"/>
   <vehicle id="hE2W_83" type="ego_car" route="E2W" depart="687" departSpeed="10" departLane="best"/>
   <vehicle id="hW2E_84" type="ego_car" route="W2E" depart="687" departSpeed="10" departLane="best"/>
   <vehicle id="hE2W_85" type="ego_car" route="E2W" depart="688" departSpeed="10" departLane="best"/>
   <vehicle id="N2S_86" type="ego_car" route="N2S" depart="690" departSpeed="10" departLane="best"/>
   <vehicle id="hN2S_87" type="ego_car" route="N2S" depart="693" departSpeed="10" departLane="best"/>
   <vehicle id="hE2W_88" type="ego_car" route="E2W" depart="711" departSpeed="10" departLane="best"/>
   <vehicle id="N2S_89" type="ego_car" route="N2S" depart="717" departSpeed="10" departLane="best"/>
   <vehicle id="W2E_90" type="ego_car" route="W2E" depart="717" departSpeed="10" departLane="best"/>
   <vehicle id="W2E_91" type="ego_car" route="W2E" depart="720" departSpeed="10" departLane="best"/>
   <vehicle id="hN2S_92" type="ego_car" route="N2S" depart="721" departSpeed="10" departLane="best"/>
   <vehicle id="hW2E_93" type="ego_car" route="W2E" depart="725" departSpeed="10" departLane="best"/>
   <vehicle id="hW2E_94" type="ego_car" route="W2E" depart="736" departSpeed="10" departLane="best"/>
   <vehicle id="N2S_95" type="ego_car" route="N2S" depart="738" departSpeed="10" departLane="best"/>
   <vehicle id="hS2N_96" type="ego_car" route="S2N" depart="749" departSpeed="10" departLane="best"/>
   <vehicle id="hN2S_97" type="ego_car" route="N2S" depart="759" departSpeed="10" departLane="best"/>
   <vehicle id="hE2W_98" type="ego_car" route="E2W" depart="761" departSpeed="10" departLane="best"/>
   <vehicle id="hN2S_99" type="ego_car" route="N2S" depart="762" departSpeed="10" departLane="best"/>
   <vehicle id="hN2S_100" type="ego_car" route="N2S" depart="762" departSpeed="10" departLane="best"/>
   <vehicle id="S2N_101" type="ego_car" route="S2N" depart="765" departSpeed="10" departLane="best"/>
   <vehicle id="hW2E_102" type="ego_car" route="W2E" depart="771" departSpeed="10" departLane="best"/>
   <vehicle id="hN2S_103" type="ego_car" route="N2S" depart="779" departSpeed="10" departLane="best"/>
   <vehicle id="hS2N_104" type="ego_car" route="S2N" depart="788" departSpeed="10" departLane="best"/>
   <vehicle id="hE2W_105" type="ego_car" route="E2W" depart="788" departSpeed="10" departLane="best"/>
   <vehicle id="hW2E_106" type="ego_car" route="W2E" depart="791" departSpeed="10" departLane="best"/>
   <vehicle id="E2W_107" type="ego_car" route="E2W" depart="796" departSpeed="10" departLane="best"/>
   <vehicle id="hW2E_108" type="ego_car" route="W2E" depart="803" departSpeed="10" departLane="best"/>
   <vehicle id="hW2E_109" type="ego_car" route="W2E" depart="804" departSpeed="10" departLane="best"/>
   <vehicle id="hN2S_110" type="ego_car" route="N2S" depart="805" departSpeed="10" departLane="best"/>
   <vehicle id="hE2W_111" type="ego_car" route="E2W" depart="813" departSpeed="10" departLane="best"/>
   <vehicle id="hE2W_112" type="ego_car" route="E2W" depart="815" departSpeed="10" departLane="best"/>
   <vehicle id="hS2N_113" type="ego_car" route="S2N" depart="819" departSpeed="10" departLane="best"/>
   <vehicle id="E2W_114" type="ego_car" route="E2W" depart="821" departSpeed="10" departLane="best"/>
   <vehicle id="hN2S_115" type="ego_car" route="N2S" depart="822" departSpeed="10" departLane="best"/>
   <vehicle id="hW2E_116" type="ego_car" route="W2E" depart="827" departSpeed="10" departLane="best"/>
   <vehicle id="hE2W_117" type="ego_car" route="E2W" depart="829" departSpeed="10" departLane="best"/>
   <vehicle id="hS2N_118" type="ego_car" route="S2N" depart="830" departSpeed="10" departLane="best"/>
   <vehicle id="hN2S_119" type="ego_car" route="N2S" depart="835" departSpeed="10" departLane="best"/>
   <vehicle id="W2E_120" type="ego_car" route="W2E" depart="838" departSpeed="10" departLane="best"/>
   <vehicle id="hE2W_121" type="ego_car" route="E2W" depart="840" departSpeed="10" departLane="best"/>
   <vehicle id="hW2E_122" type="ego_car" route="W2E" depart="842" departSpeed="10" departLane="best"/>
   <vehicle id="hN2S_123" type="ego_car" route="N2S" depart="846" departSpeed="10" departLane="best"/>
   <vehicle id="hS2N_124" type="ego_car" route="S2N" depart="847" departSpeed="10" departLane="best"/>
   <vehicle id="E2W_125" type="ego_car" route="E2W" depart="848" departSpeed="10" departLane="best"/>
   <vehicle id="hS2N_126" type="ego_car" route="S2N" depart="849" departSpeed="10" departLane="best"/>
   <vehicle id="S2N_127" type="ego_car" route="S2N" depart="852" departSpeed="10" departLane="best"/>
   <vehicle id="hN2S_128" type="ego_car" route="N2S" depart="853" departSpeed="10" departLane="best"/>
   <vehicle id="hS2N_129" type="ego_car" route="S2N" depart="854" departSpeed="10" departLane="best"/>
   <vehicle id="hW2E_130" type="ego_car" route="W2E" depart="865" departSpeed="10" departLane="best"/>
   <vehicle id="hW2E_131" type="ego_car" route="W2E" depart="865" departSpeed="10" departLane="best"/>
   <vehicle id="N2S_132" type="ego_car" route="N2S" depart="867" departSpeed="10" departLane="best"/>
   <vehicle id="hE2W_133" type="ego_car" route="E2W" depart="868" departSpeed="10" departLane="best"/>
   <vehicle id="hE2W_134" type="ego_car" route="E2W" depart="870" departSpeed="10" departLane="best"/>
   <vehicle id="E2W_135" type="ego_car" route="E2W" depart="871" departSpeed="10" departLane="best"/>
   <vehicle id="hS2N_136" type="ego_car" route="S2N" depart="873" departSpeed="10" departLane="best"/>
   <vehicle id="W2E_137" type="ego_car" route="W2E" depart="874" departSpeed="10" departLane="best"/>
   <vehicle id="hE2W_138" type="ego_car" route="E2W" depart="875" departSpeed="10" departLane="best"/>
   <vehicle id="hN2S_139" type="ego_car" route="N2S" depart="882" departSpeed="10" departLane="best"/>
   <vehicle id="N2S_140" type="ego_car" route="N2S" depart="886" departSpeed="10" departLane="best"/>
   <vehicle id="hN2S_141" type="ego_car" route="N2S" depart="889" departSpeed="10" departLane="best"/>
   <vehicle id="hS2N_142" type="ego_car" route="S2N" depart="891" departSpeed="10" departLane="best"/>
   <vehicle id="hN2S_143" type="ego_car" route="N2S" depart="891" departSpeed="10" departLane="best"/>
   <vehicle id="hN2S_144" type="ego_car" route="N2S" depart="892" departSpeed="10" departLane="best"/>
   <vehicle id="hE2W_145" type="ego_car" route="E2W" depart="893" departSpeed="10" departLane="best"/>
   <vehicle id="E2W_146" type="ego_car" route="E2W" depart="897" departSpeed="10" departLane="best"/>
   <vehicle id="hN2S_147" type="ego_car" route="N2S" depart="899" departSpeed="10" departLane="best"/>
   <vehicle id="hS2N_148" type="ego_car" route="S2N" depart="901" departSpeed="10" departLane="best"/>
   <vehicle id="N2S_149" type="ego_car" route="N2S" depart="904" departSpeed="10" departLane="best"/>
   <vehicle id="hE2W_150" type="ego_car" route="E2W" depart="906" departSpeed="10" departLane="best"/>
   <vehicle id="hN2S_151" type="ego_car" route="N2S" depart="908" departSpeed="10" departLane="best"/>
   <vehicle id="hN2S_152" type="ego_car" route="N2S" depart="924" departSpeed="10" departLane="best"/>
   <vehicle id="hW2E_153" type="ego_car" route="W2E" depart="932" departSpeed="10" departLane="best"/>
   <vehicle id="hN2S_154" type="ego_car" route="N2S" depart="932" departSpeed="10" departLane="best"/>
   <vehicle id="S2N_155" type="ego_car" route="S2N" depart="943" departSpeed="10" departLane="best"/>
   <vehicle id="E2W_156" type="ego_car" route="E2W" depart="944" departSpeed="10" departLane="best"/>
   <vehicle id="hE2W_157" type="ego_car" route="E2W" depart="947" departSpeed="10" departLane="best"/>
   <vehicle id="hE2W_158" type="ego_car" route="E2W" depart="947" departSpeed="10" departLane="best"/>
   <vehicle id="N2S_159" type="ego_car" route="N2S" depart="955" departSpeed="10" departLane="best"/>
   <vehicle id="E2W_160" type="ego_car" route="E2W" depart="956" departSpeed="10" departLane="best"/>
   <vehicle id="E2W_161" type="ego_car" route="E2W" depart="957" departSpeed="10" departLane="best"/>
   <vehicle id="hE2W_162" type="ego_car" route="E2W" depart="957" departSpeed="10" departLane="best"/>
   <vehicle id="S2N_163" type="ego_car" route="S2N" depart="959" departSpeed="10" departLane="best"/>
   <vehicle id="hS2N_164" type="ego_car" route="S2N" depart="962" departSpeed="10" departLane="best"/>
   <vehicle id="hE2W_165" type="ego_car" route="E2W" depart="969" departSpeed="10" departLane="best"/>
   <vehicle id="E2W_166" type="ego_car" route="E2W" depart="972" departSpeed="10" departLane="best"/>
   <vehicle id="N2S_167" type="ego_car" route="N2S" depart="981" departSpeed="10" departLane="best"/>
   <vehicle id="hE2W_168" type="ego_car" route="E2W" depart="983" departSpeed="10" departLane="best"/>
   <vehicle id="N2S_169" type="ego_car" route="N2S" depart="985" departSpeed="10" departLane="best"/>
   <vehicle id="S2N_170" type="ego_car" route="S2N" depart="993" departSpeed="10" departLane="best"/>
   <vehicle id="hN2S_171" type="ego_car" route="N2S" depart="993" departSpeed="10" departLane="best"/>
   <vehicle id="hE2W_172" type="ego_car" route="E2W" depart="993" departSpeed="10" departLane="best"/>
   <vehicle id="hS2N_173" type="ego_car" route="S2N" depart="996" departSpeed="10" departLane="best"/>
   <vehicle id="hE2W_174" type="ego_car" route="E2W" depart="999" departSpeed="10" departLane="best"/>
   <vehicle id="hN2S_175" type="ego_car" route="N2S" depart="1000" departSpeed="10" departLane="best"/>
   <vehicle id="N2S_176" type="ego_car" route="N2S" depart="1000" departSpeed="10" departLane="best"/>
   <vehicle id="N2S_177" type="ego_car" route="N2S" depart="1000" departSpeed="10" departLane="best"/>
   <vehicle id="hN2S_178" type="ego_car" route="N2S" depart="1004" departSpeed="10" departLane="best"/>
   <vehicle id="hS2N_179" type="ego_car" route="S2N" depart="1005" departSpeed="10" departLane="best"/>
   <vehicle id="hS2N_180" type="ego_car" route="S2N" depart="1006" departSpeed="10" departLane="best"/>
   <vehicle id="hE2W_181" type="ego_car" route="E2W" depart="1007" departSpeed="10" departLane="best"/>
   <vehicle id="hE2W_182" type="ego_car" route="E2W" depart="1010" departSpeed="10" departLane="best"/>
   <vehicle id="hN2S_183" type="ego_car" route="N2S" depart="1012" departSpeed="10" departLane="best"/>
   <vehicle id="W2E_184" type="ego_car" route="W2E" depart="1014" departSpeed="10" departLane="best"/>
   <vehicle id="hW2E_185" type="ego_car" route="W2E" depart="1030" departSpeed="10" departLane="best"/>
   <vehicle id="hE2W_186" type="ego_car" route="E2W" depart="1030" departSpeed="10" departLane="best"/>
   <vehicle id="hW2E_187" type="ego_car" route="W2E" depart="1038" departSpeed="10" departLane="best"/>
   <vehicle id="W2E_188" type="ego_car" route="W2E" depart="1041" departSpeed="10" departLane="best"/>
   <vehicle id="N2S_189" type="ego_car" route="N2S" depart="1041" departSpeed="10" departLane="best"/>
   <vehicle id="hW2E_190" type="ego_car" route="W2E" depart="1046" departSpeed="10" departLane="best"/>
   <vehicle id="hE2W_191" type="ego_car" route="E2W" depart="1047" departSpeed="10" departLane="best"/>
   <vehicle id="hS2N_192" type="ego_car" route="S2N" depart="1048" departSpeed="10" departLane="best"/>
   <vehicle id="W2E_193" type="ego_car" route="W2E" depart="1052" departSpeed="10" departLane="best"/>
   <vehicle id="hE2W_194" type="ego_car" route="E2W" depart="1060" departSpeed="10" departLane="best"/>
   <vehicle id="hW2E_195" type="ego_car" route="W2E" depart="1066" departSpeed="10" departLane="best"/>
   <vehicle id="hW2E_196" type="ego_car" route="W2E" depart="1077" departSpeed="10" departLane="best"/>
   <vehicle id="hW2E_197" type="ego_car" route="W2E" depart="1083" departSpeed="10" departLane="best"/>
   <vehicle id="E2W_198" type="ego_car" route="E2W" depart="1083" departSpeed="10" departLane="best"/>
   <vehicle id="hW2E_199" type="ego_car" route="W2E" depart="1084" departSpeed="10" departLane="best"/>
   <vehicle id="hE2W_200" type="ego_car" route="E2W" depart="1094" departSpeed="10" departLane="best"/>
   <vehicle id="hS2N_201" type="ego_car" route="S2N" depart="1097" departSpeed="10" departLane="best"/>
   <vehicle id="hW2E_202" type="ego_car" route="W2E" depart="1100" departSpeed="10" departLane="best"/>
   <vehicle id="hW2E_203" type="ego_car" route="W2E" depart="1105" departSpeed="10" departLane="best"/>
   <vehicle id="E2W_204" type="ego_car" route="E2W" depart="1109" departSpeed="10" departLane="best"/>
   <vehicle id="hW2E_205" type="ego_car" route="W2E" depart="1116" departSpeed="10" departLane="best"/>
   <vehicle id="E2W_206" type="ego_car" route="E2W" depart="1138" departSpeed="10" departLane="best"/>
   <vehicle id="hW2E_207" type="ego_car" route="W2E" depart="1144" departSpeed="10" departLane="best"/>
   <vehicle id="S2N_208" type="ego_car" route="S2N" depart="1149" departSpeed="10" departLane="best"/>
   <vehicle id="hW2E_209" type="ego_car" route="W2E" depart="1153" departSpeed="10" departLane="best"/>
   <vehicle id="hN2S_210" type="ego_car" route="N2S" depart="1156" departSpeed="10" departLane="best"/>
   <vehicle id="hE2W_211" type="ego_car" route="E2W" depart="1158" departSpeed="10" departLane="best"/>
   <vehicle id="hW2E_212" type="ego_car" route="W2E" depart="1160" departSpeed="10" departLane="best"/>
   <vehicle id="hS2N_213" type="ego_car" route="S2N" depart="1171" departSpeed="10" departLane="best"/>
   <vehicle id="hN2S_214" type="ego_car" route="N2S" depart="1178" departSpeed="10" departLane="best"/>
   <vehicle id="hN2S_215" type="ego_car" route="N2S" depart="1185" departSpeed="10" departLane="best"/>
   <vehicle id="hW2E_216" type="ego_car" route="W2E" depart="1189" departSpeed="10" departLane="best"/>
   <vehicle id="hE2W_217" type="ego_car" route="E2W" depart="1198" departSpeed="10" departLane="best"/>
   <vehicle id="hS2N_218" type="ego_car" route="S2N" depart="1206" departSpeed="10" departLane="best"/>
   <vehicle id="N2S_219" type="ego_car" route="N2S" depart="1206" departSpeed="10" departLane="best"/>
   <vehicle id="hW2E_220" type="ego_car" route="W2E" depart="1211" departSpeed="10" departLane="best"/>
   <vehicle id="hE2W_221" type="ego_car" route="E2W" depart="1212" departSpeed="10" departLane="best"/>
   <vehicle id="hS2N_222" type="ego_car" route="S2N" depart="1216" departSpeed="10" departLane="best"/>
   <vehicle id="hE2W_223" type="ego_car" route="E2W" depart="1216" departSpeed="10" departLane="best"/>
   <vehicle id="hS2N_224" type="ego_car" route="S2N" depart="1219" departSpeed="10" departLane="best"/>
   <vehicle id="E2W_225" type="ego_car" route="E2W" depart="1222" departSpeed="10" departLane="best"/>
   <vehicle id="hE2W_226" type="ego_car" route="E2W" depart="1223" departSpeed="10" departLane="best"/>
   <vehicle id="hW2E_227" type="ego_car" route="W2E" depart="1232" departSpeed="10" departLane="best"/>
   <vehicle id="hW2E_228" type="ego_car" route="W2E" depart="1235" departSpeed="10" departLane="best"/>
   <vehicle id="S2N_229" type="ego_car" route="S2N" depart="1237" departSpeed="10" departLane="best"/>
   <vehicle id="hE2W_230" type="ego_car" route="E2W" depart="1245" departSpeed="10" departLane="best"/>
   <vehicle id="E2W_231" type="ego_car" route="E2W" depart="1248" departSpeed="10" departLane="best"/>
   <vehicle id="S2N_232" type="ego_car" route="S2N" depart="1249" departSpeed="10" departLane="best"/>
   <vehicle id="hW2E_233" type="ego_car" route="W2E" depart="1255" departSpeed="10" departLane="best"/>
   <vehicle id="hE2W_234" type="ego_car" route="E2W" depart="1259" departSpeed="10" departLane="best"/>
   <vehicle id="W2E_235" type="ego_car" route="W2E" depart="1267" departSpeed="10" departLane="best"/>
   <vehicle id="N2S_236" type="ego_car" route="N2S" depart="1268" departSpeed="10" departLane="best"/>
   <vehicle id="hE2W_237" type="ego_car" route="E2W" depart="1270" departSpeed="10" departLane="best"/>
   <vehicle id="E2W_238" type="ego_car" route="E2W" depart="1274" departSpeed="10" departLane="best"/>
   <vehicle id="hE2W_239" type="ego_car" route="E2W" depart="1276" departSpeed="10" departLane="best"/>
   <vehicle id="hN2S_240" type="ego_car" route="N2S" depart="1278" departSpeed="10" departLane="best"/>
   <vehicle id="hE2W_241" type="ego_car" route="E2W" depart="1286" departSpeed="10" departLane="best"/>
   <vehicle id="hE2W_242" type="ego_car" route="E2W" depart="1289" departSpeed="10" departLane="best"/>
   <vehicle id="hE2W_243" type="ego_car" route="E2W" depart="1289" departSpeed="10" departLane="best"/>
   <vehicle id="hW2E_244" type="ego_car" route="W2E" depart="1300" departSpeed="10" departLane="best"/>
   <vehicle id="N2S_245" type="ego_car" route="N2S" depart="1303" departSpeed="10" departLane="best"/>
   <vehicle id="hW2E_246" type="ego_car" route="W2E" depart="1304" departSpeed="10" departLane="best"/>
   <vehicle id="E2W_247" type="ego_car" route="E2W" depart="1306" departSpeed="10" departLane="best"/>
   <vehicle id="hN2S_248" type="ego_car" route="N2S" depart="1307" departSpeed="10" departLane="best"/>
   <vehicle id="hS2N_249" type="ego_car" route="S2N" depart="1321" departSpeed="10" departLane="best"/>
   <vehicle id="hE2W_250" type="ego_car" route="E2W" depart="1321" departSpeed="10" departLane="best"/>
   <vehicle id="hN2S_251" type="ego_car" route="N2S" depart="1324" departSpeed="10" departLane="best"/>
   <vehicle id="hW2E_252" type="ego_car" route="W2E" depart="1327" departSpeed="10" departLane="best"/>
   <vehicle id="S2N_253" type="ego_car" route="S2N" depart="1340" departSpeed="10" departLane="best"/>
   <vehicle id="hW2E_254" type="ego_car" route="W2E" depart="1340" departSpeed="10" departLane="best"/>
   <vehicle id="hW2E_255" type="ego_car" route="W2E" depart="1356" departSpeed="10" departLane="best"/>
   <vehicle id="hN2S_256" type="ego_car" route="N2S" depart="1357" departSpeed="10" departLane="best"/>
   <vehicle id="N2S_257" type="ego_car" route="N2S" depart="1358" departSpeed="10" departLane="best"/>
   <vehicle id="S2N_258" type="ego_car" route="S2N" depart="1361" departSpeed="10" departLane="best"/>
   <vehicle id="hS2N_259" type="ego_car" route="S2N" depart="1364" departSpeed="10" departLane="best"/>
   <vehicle id="hN2S_260" type="ego_car" route="N2S" depart="1370" departSpeed="10" departLane="best"/>
   <vehicle id="hW2E_261" type="ego_car" route="W2E" depart="1374" departSpeed="10" departLane="best"/>
   <vehicle id="hW2E_262" type="ego_car" route="W2E" depart="1375" departSpeed="10" departLane="best"/>
   <vehicle id="hN2S_263" type="ego_car" route="N2S" depart="1393" departSpeed="10" departLane="best"/>
   <vehicle id="E2W_264" type="ego_car" route="E2W" depart="1394" departSpeed="10" departLane="best"/>
   <vehicle id="hW2E_265" type="ego_car" route="W2E" depart="1395" departSpeed="10" departLane="best"/>
   <vehicle id="hN2S_266" type="ego_car" route="N2S" depart="1397" departSpeed="10" departLane="best"/>
   <vehicle id="hN2S_267" type="ego_car" route="N2S" depart="1403" departSpeed="10" departLane="best"/>
   <vehicle id="hN2S_268" type="ego_car" route="N2S" depart="1425" departSpeed="10" departLane="best"/>
   <vehicle id="hS2N_269" type="ego_car" route="S2N" depart="1426" departSpeed="10" departLane="best"/>
   <vehicle id="W2E_270" type="ego_car" route="W2E" depart="1426" departSpeed="10" departLane="best"/>
   <vehicle id="hE2W_271" type="ego_car" route="E2W" depart="1430" departSpeed="10" departLane="best"/>
   <vehicle id="hN2S_272" type="ego_car" route="N2S" depart="1431" departSpeed="10" departLane="best"/>
   <vehicle id="hE2W_273" type="ego_car" route="E2W" depart="1444" departSpeed="10" departLane="best"/>
   <vehicle id="hW2E_274" type="ego_car" route="W2E" depart="1460" departSpeed="10" departLane="best"/>
   <vehicle id="E2W_275" type="ego_car" route="E2W" depart="1466" departSpeed="10" departLane="best"/>
   <vehicle id="S2N_276" type="ego_car" route="S2N" depart="1468" departSpeed="10" departLane="best"/>
   <vehicle id="N2S_277" type="ego_car" route="N2S" depart="1476" departSpeed="10" departLane="best"/>
   <vehicle id="hS2N_278" type="ego_car" route="S2N" depart="1489" departSpeed="10" departLane="best"/>
   <vehicle id="hE2W_279" type="ego_car" route="E2W" depart="1489" departSpeed="10" departLane="best"/>
   <vehicle id="hE2W_280" type="ego_car" route="E2W" depart="1504" departSpeed="10" departLane="best"/>
   <vehicle id="hE2W_281" type="ego_car" route="E2W" depart="1515" departSpeed="10" departLane="best"/>
   <vehicle id="W2E_282" type="ego_car" route="W2E" depart="1534" departSpeed="10" departLane="best"/>
   <vehicle id="hE2W_283" type="ego_car" route="E2W" depart="1542" departSpeed="10" departLane="best"/>
   <vehicle id="hN2S_284" type="ego_car" route="N2S" depart="1545" departSpeed="10" departLane="best"/>
   <vehicle id="hW2E_285" type="ego_car" route="W2E" depart="1552" departSpeed="10" departLane="best"/>
   <vehicle id="hW2E_286" type="ego_car" route="W2E" depart="1552" departSpeed="10" departLane="best"/>
   <vehicle id="hW2E_287" type="ego_car" route="W2E" depart="1556" departSpeed="10" departLane="best"/>
   <vehicle id="E2W_288" type="ego_car" route="E2W" depart="1559" departSpeed="10" departLane="best"/>