<routes>

        <vType id = 'ego_car' vclass="evehicle" emissionClass="Energy" tau="1.5" accel="3.0" decel="3.0" color="#00FFFF" sigma="0.2" length="4.90" minGap="1.0" maxSpeed="20" carFollowing="IDM" guiShape="passenger"/>

        <route id="N2S" edges="NS -SN"/>
        <route id="S2N" edges="SN -NS"/>
        <route id="W2E" edges="WE -EW"/>
        <route id="E2W" edges="EW -WE"/>
   <vehicle id="hE2W_1" type="ego_car" route="E2W" depart="25" departSpeed="10" departLane="best"/>
   <vehicle id="E2W_2" type="ego_car" route="E2W" depart="96" departSpeed="10" departLane="best"/>
   <vehicle id="hS2N_3" type="ego_car" route="S2N" depart="102" departSpeed="10" departLane="best"/>
   <vehicle id="N2S_4" type="ego_car" route="N2S" depart="111" departSpeed="10" departLane="best"/>
   <vehicle id="hE2W_5" type="ego_car" route="E2W" depart="112" departSpeed="10" departLane="best"/>
   <vehicle id="hE2W_6" type="ego_car" route="E2W" depart="137" departSpeed="10" departLane="best"/>
   <vehicle id="hW2E_7" type="ego_car" route="W2E" depart="138" departSpeed="10" departLane="best"/>
   <vehicle id="E2W_8" type="ego_car" route="E2W" depart="142" departSpeed="10" departLane="best"/>
   <vehicle id="hW2E_9" type="ego_car" route="W2E" depart="144" departSpeed="10" departLane="best"/>
   <vehicle id="E2W_10" type="ego_car" route="E2W" depart="152" departSpeed="10" departLane="best"/>
   <vehicle id="E2W_11" type="ego_car" route="E2W" depart="158" departSpeed="10" departLane="best"/>
   <vehicle id="hE2W_12" type="ego_car" route="E2W" depart="184" departSpeed="10" departLane="best"/>
   <vehicle id="E2W_13" type="ego_car" route="E2W" depart="192" departSpeed="10" departLane="best"/>
   <vehicle id="W2E_14" type="ego_car" route="W2E" depart="198" departSpeed="10" departLane="best"/>
   <vehicle id="hE2W_15" type="ego_car" route="E2W" depart="201" departSpeed="10" departLane="best"/>
   <vehicle id="hW2E_16" type="ego_car" route="W2E" depart="275" departSpeed="10" departLane="best"/>
   <vehicle id="E2W_17" type="ego_car" route="E2W" depart="284" departSpeed="10" departLane="best"/>
   <vehicle id="hS2N_18" type="ego_car" route="S2N" depart="287" departSpeed="10" departLane="best"/>
   <vehicle id="hS2N_19" type="ego_car" route="S2N" depart="296" departSpeed="10" departLane="best"/>
   <vehicle id="E2W_20" type="ego_car" route="E2W" depart="301" departSpeed="10" departLane="best"/>
   <vehicle id="hN2S_21" type="ego_car" route="N2S" depart="314" departSpeed="10" departLane="best"/>
   <vehicle id="hE2W_22" type="ego_car" route="E2W" depart="316" departSpeed="10" departLane="best"/>
   <vehicle id="hW2E_23" type="ego_car" route="W2E" depart="350" departSpeed="10" departLane="best"/>
   <vehicle id="W2E_24" type="ego_car" route="W2E" depart="352" departSpeed="10" departLane="best"/>
   <vehicle id="hW2E_25" type="ego_car" route="W2E" depart="360" departSpeed="10" departLane="best"/>
   <vehicle id="hS2N_26" type="ego_car" route="S2N" depart="364" departSpeed="10" departLane="best"/>
   <vehicle id="S2N_27" type="ego_car" route="S2N" depart="375" departSpeed="10" departLane="best"/>
   <vehicle id="S2N_28" type="ego_car" route="S2N" depart="385" departSpeed="10" departLane="best"/>
   <vehicle id="hE2W_29" type="ego_car" route="E2W" depart="385" departSpeed="10" departLane="best"/>
   <vehicle id="hE2W_30" type="ego_car" route="E2W" depart="394" departSpeed="10" departLane="best"/>
   <vehicle id="hS2N_31" type="ego_car" route="S2N" depart="395" departSpeed="10" departLane="best"/>
   <vehicle id="hW2E_32" type="ego_car" route="W2E" depart="407" departSpeed="10" departLane="best"/>
   <vehicle id="hE2W_33" type="ego_car" route="E2W" depart="426" departSpeed="10" departLane="best"/>
   <vehicle id="hW2E_34" type="ego_car" route="W2E" depart="438" departSpeed="10" departLane="best"/>
   <vehicle id="hS2N_35" type="ego_car" route="S2N" depart="440" departSpeed="10" departLane="best"/>
   <vehicle id="hE2W_36" type="ego_car" route="E2W" depart="450" departSpeed="10" departLane="best"/>
   <vehicle id="hN2S_37" type="ego_car" route="N2S" depart="471" departSpeed="10" departLane="best"/>
   <vehicle id="hS2N_38" type="ego_car" route="S2N" depart="476" departSpeed="10" departLane="best"/>
   <vehicle id="hS2N_39" type="ego_car" route="S2N" depart="481" departSpeed="10" departLane="best"/>
   <vehicle id="hE2W_40" type="ego_car" route="E2W" depart="482" departSpeed="10" departLane="best"/>
   <vehicle id="hW2E_41" type="ego_car" route="W2E" depart="486" departSpeed="10" departLane="best"/>
   <vehicle id="E2W_42" type="ego_car" route="E2W" depart="487" departSpeed="10" departLane="best"/>
   <vehicle id="E2W_43" type="ego_car" route="E2W" depart="498" departSpeed="10" departLane="best"/>
   <vehicle id="hE2W_44" type="ego_car" route="E2W" depart="499" departSpeed="10" departLane="best"/>
   <vehicle id="N2S_45" type="ego_car" route="N2S" depart="500" departSpeed="10" departLane="best"/>
   <vehicle id="E2W_46" type="ego_car" route="E2W" depart="501" departSpeed="10" departLane="best"/>
   <vehicle id="E2W_47" type="ego_car" route="E2W" depart="521" departSpeed="10" departLane="best"/>
   <vehicle id="hW2E_48" type="ego_car" route="W2E" depart="546" departSpeed="10" departLane="best"/>
   <vehicle id="hW2E_49" type="ego_car" route="W2E" depart="557" departSpeed="10" departLane="best"/>
   <vehicle id="hW2E_50" type="ego_car" route="W2E" depart="566" departSpeed="10" departLane="best"/>
   <vehicle id="hW2E_51" type="ego_car" route="W2E" depart="572" departSpeed="10" departLane="best"/>
   <vehicle id="W2E_52" type="ego_car" route="W2E" depart="581" departSpeed="10" departLane="best"/>
   <vehicle id="hN2S_53" type="ego_car" route="N2S" depart="582" departSpeed="10" departLane="best"/>
   <vehicle id="hE2W_54" type="ego_car" route="E2W" depart="592" departSpeed="10" departLane="best"/>
   <vehicle id="hN2S_55" type="ego_car" route="N2S" depart="598" departSpeed="10" departLane="best"/>
   <vehicle id="hS2N_56" type="ego_car" route="S2N" depart="599" departSpeed="10" departLane="best"/>
   <vehicle id="E2W_57" type="ego_car" route="E2W" depart="606" departSpeed="10" departLane="best"/>
   <vehicle id="hE2W_58" type="ego_car" route="E2W" depart="608" departSpeed="10" departLane="best"/>
   <vehicle id="E2W_59" type="ego_car" route="E2W" depart="611" departSpeed="10" departLane="best"/>
   <vehicle id="hS2N_60" type="ego_car" route="S2N" depart="620" departSpeed="10" departLane="best"/>
   <vehicle id="hE2W_61" type="ego_car" route="E2W" depart="621" departSpeed="10" departLane="best"/>
   <vehicle id="hS2N_62" type="ego_car" route="S2N" depart="622" departSpeed="10" departLane="best"/>
   <vehicle id="hE2W_63" type="ego_car" route="E2W" depart="625" departSpeed="10" departLane="best"/>
   <vehicle id="hN2S_64" type="ego_car" route="N2S" depart="634" departSpeed="10" departLane="best"/>
   <vehicle id="hE2W_65" type="ego_car" route="E2W" depart="634" departSpeed="10" departLane="best"/>
   <vehicle id="hN2S_66" type="ego_car" route="N2S" depart="638" departSpeed="10" departLane="best"/>
   <vehicle id="S2N_67" type="ego_car" route="S2N" depart="638" departSpeed="10" departLane="best"/>
   <vehicle id="S2N_68" type="ego_car" route="S2N" depart="657" departSpeed="10" departLane="best"/>
   <vehicle id="hW2E_69" type="ego_car" route="W2E" depart="659" departSpeed="10" departLane="best"/>
   <vehicle id="hS2N_70" type="ego_car" route="S2N" depart="661" departSpeed="10" departLane="best"/>
   <vehicle id="W2E_71" type="ego_car" route="W2E" depart="661" departSpeed="10" departLane="best"/>
   <vehicle id="hE2W_72" type="ego_car" route="E2W" depart="661" departSpeed="10" departLane="best"/>
   <vehicle id="hW2E_73" type="ego_car" route="W2E" depart="664" departSpeed="10" departLane="best"/>
   <vehicle id="hE2W_74" type="ego_car" route="E2W" depart="664" departSpeed="10" departLane="best"/>
   <vehicle id="hS2N_75" type="ego_car" route="S2N" depart="670" departSpeed="10" departLane="best"/>
   <vehicle id="hS2N_76" type="ego_car" route="S2N" depart="672" departSpeed="10" departLane="best"/>
   <vehicle id="hE2W_77" type="ego_car" route="E2W" depart="677" departSpeed="10" departLane="best"/>
   <vehicle id="hW2E_78" type="ego_car" route="W2E" depart="681" departSpeed="10" departLane="best"/>
   <vehicle id="hE2W_79" type="ego_car" route="E2W" depart="688" departSpeed="10" departLane="best"/>
   <vehicle id="S2N_80" type="ego_car" route="S2N" depart="689" departSpeed="10" departLane="best"/>
   <vehicle id="hW2E_81" type="ego_car" route="W2E" depart="691" departSpeed="10" departLane="best"/>
   <vehicle id="hW2E_82" type="ego_car" route="W2E" depart="722" departSpeed="10" departLane="best"/>
   <vehicle id="hE2W_83" type="ego_car" route="E2W" depart="722" departSpeed="10" departLane="best"/>
   <vehicle id="hE2W_84" type="ego_car" route="E2W" depart="742" departSpeed="10" departLane="best"/>
   <vehicle id="hE2W_85" type="ego_car" route="E2W" depart="744" departSpeed="10" departLane="best"/>
   <vehicle id="E2W_86" type="ego_car" route="E2W" depart="745" departSpeed="10" departLane="best"/>
   <vehicle id="hW2E_87" type="ego_car" route="W2E" depart="747" departSpeed="10" departLane="best"/>
   <vehicle id="hW2E_88" type="ego_car" route="W2E" depart="748" departSpeed="10" departLane="best"/>
   <vehicle id="W2E_89" type="ego_car" route="W2E" depart="754" departSpeed="10" departLane="best"/>
   <vehicle id="W2E_90" type="ego_car" route="W2E" depart="757" departSpeed="10" departLane="best"/>
   <vehicle id="W2E_91" type="ego_car" route="W2E" depart="764" departSpeed="10" departLane="best"/>
   <vehicle id="hE2W_92" type="ego_car" route="E2W" depart="764" departSpeed="10" departLane="best"/>
   <vehicle id="hS2N_93" type="ego_car" route="S2N" depart="773" departSpeed="10" departLane="best"/>
   <vehicle id="hW2E_94" type="ego_car" route="W2E" depart="777" departSpeed="10" departLane="best"/>
   <vehicle id="W2E_95" type="ego_car" route="W2E" depart="783" departSpeed="10" departLane="best"/>
   <vehicle id="hS2N_96" type="ego_car" route="S2N" depart="794" departSpeed="10" departLane="best"/>
   <vehicle id="hS2N_97" type="ego_car" route="S2N" depart="802" departSpeed="10" departLane="best"/>
   <vehicle id="hW2E_98" type="ego_car" route="W2E" depart="811" departSpeed="10" departLane="best"/>
   <vehicle id="hW2E_99" type="ego_car" route="W2E" depart="813" departSpeed="10" departLane="best"/>
   <vehicle id="hE2W_100" type="ego_car" route="E2W" depart="813" departSpeed="10" departLane="best"/>
   <vehicle id="W2E_101" type="ego_car" route="W2E" depart="815" departSpeed="10" departLane="best"/>
   <vehicle id="hE2W_102" type="ego_car" route="E2W" depart="823" departSpeed="10" departLane="best"/>
   <vehicle id="hE2W_103" type="ego_car" route="E2W" depart="828" departSpeed="10" departLane="best"/>
   <vehicle id="hW2E_104" type="ego_car" route="W2E" depart="837" departSpeed="10" departLane="best"/>
   <vehicle id="hW2E_105" type="ego_car" route="W2E" depart="838" departSpeed="10" departLane="best"/>
   <vehicle id="hN2S_106" type="ego_car" route="N2S" depart="847" departSpeed="10" departLane="best"/>
   <vehicle id="S2N_107" type="ego_car" route="S2N" depart="848" departSpeed="10" departLane="best"/>
   <vehicle id="hW2E_108" type="ego_car" route="W2E" depart="866" departSpeed="10" departLane="best"/>
   <vehicle id="hN2S_109" type="ego_car" route="N2S" depart="868" departSpeed="10" departLane="best"/>
   <vehicle id="hE2W_110" type="ego_car" route="E2W" depart="879" departSpeed="10" departLane="best"/>
   <vehicle id="hW2E_111" type="ego_car" route="W2E" depart="881" departSpeed="10" departLane="best"/>
   <vehicle id="hE2W_112" type="ego_car" route="E2W" depart="882" departSpeed="10" departLane="best"/>
   <vehicle id="hS2N_113" type="ego_car" route="S2N" depart="883" departSpeed="10" departLane="best"/>
   <vehicle id="S2N_114" type="ego_car" route="S2N" depart="893" departSpeed="10" departLane="best"/>
   <vehicle id="hN2S_115" type="ego_car" route="N2S" depart="899" departSpeed="10" departLane="best"/>
   <vehicle id="hE2W_116" type="ego_car" route="E2W" depart="901" departSpeed="10" departLane="best"/>
   <vehicle id="hW2E_117" type="ego_car" route="W2E" depart="905" departSpeed="10" departLane="best"/>
   <vehicle id="hW2E_118" type="ego_car" route="W2E" depart="905" departSpeed="10" departLane="best"/>
   <vehicle id="hE2W_119" type="ego_car" route="E2W" depart="906" departSpeed="10" departLane="best"/>
   <vehicle id="E2W_120" type="ego_car" route="E2W" depart="911" departSpeed="10" departLane="best"/>
   <vehicle id="hS2N_121" type="ego_car" route="S2N" depart="915" departSpeed="10" departLane="best"/>
   <vehicle id="hW2E_122" type="ego_car" route="W2E" depart="921" departSpeed="10" departLane="best"/>
   <vehicle id="hE2W_123" type="ego_car" route="E2W" depart="927" departSpeed="10" departLane="best"/>
   <vehicle id="hN2S_124" type="ego_car" route="N2S" depart="930" departSpeed="10" departLane="best"/>
   <vehicle id="N2S_125" type="ego_car" route="N2S" depart="943" departSpeed="10" departLane="best"/>
   <vehicle id="hW2E_126" type="ego_car" route="W2E" depart="947" departSpeed="10" departLane="best"/>
   <vehicle id="W2E_127" type="ego_car" route="W2E" depart="949" departSpeed="10" departLane="best"/>
   <vehicle id="hN2S_128" type="ego_car" route="N2S" depart="954" departSpeed="10" departLane="best"/>
   <vehicle id="hW2E_129" type="ego_car" route="W2E" depart="963" departSpeed="10" departLane="best"/>
   <vehicle id="hE2W_130" type="ego_car" route="E2W" depart="964" departSpeed="10" departLane="best"/>
   <vehicle id="hS2N_131" type="ego_car" route="S2N" depart="980" departSpeed="10" departLane="best"/>
   <vehicle id="E2W_132" type="ego_car" route="E2W" depart="988" departSpeed="10" departLane="best"/>
   <vehicle id="hW2E_133" type="ego_car" route="W2E" depart="993" departSpeed="10" departLane="best"/>
   <vehicle id="hW2E_134" type="ego_car" route="W2E" depart="1001" departSpeed="10" departLane="best"/>
   <vehicle id="E2W_135" type="ego_car" route="E2W" depart="1002" departSpeed="10" departLane="best"/>
   <vehicle id="hE2W_136" type="ego_car" route="E2W" depart="1005" departSpeed="10" departLane="best"/>
   <vehicle id="E2W_137" type="ego_car" route="E2W" depart="1008" departSpeed="10" departLane="best"/>
   <vehicle id="hE2W_138" type="ego_car" route="E2W" depart="1008" departSpeed="10" departLane="best"/>
   <vehicle id="hN2S_139" type="ego_car" route="N2S" depart="1010" departSpeed="10" departLane="best"/>
   <vehicle id="W2E_140" type="ego_car" route="W2E" depart="1011" departSpeed="10" departLane="best"/>
   <vehicle id="hS2N_141" type="ego_car" route="S2N" depart="1018" departSpeed="10" departLane="best"/>
   <vehicle id="hE2W_142" type="ego_car" route="E2W" depart="1020" departSpeed="10" departLane="best"/>
   <vehicle id="hN2S_143" type="ego_car" route="N2S" depart="1022" departSpeed="10" departLane="best"/>
   <vehicle id="hS2N_144" type="ego_car" route="S2N" depart="1031" departSpeed="10" departLane="best"/>
   <vehicle id="hW2E_145" type="ego_car" route="W2E" depart="1045" departSpeed="10" departLane="best"/>
   <vehicle id="N2S_146" type="ego_car" route="N2S" depart="1048" departSpeed="10" departLane="best"/>
   <vehicle id="hS2N_147" type="ego_car" route="S2N" depart="1057" departSpeed="10" departLane="best"/>
   <vehicle id="hE2W_148" type="ego_car" route="E2W" depart="1059" departSpeed="10" departLane="best"/>
   <vehicle id="W2E_149" type="ego_car" route="W2E" depart="1071" departSpeed="10" departLane="best"/>
   <vehicle id="hE2W_150" type="ego_car" route="E2W" depart="1075" departSpeed="10" departLane="best"/>
   <vehicle id="hE2W_151" type="ego_car" route="E2W" depart="1081" departSpeed="10" departLane="best"/>
   <vehicle id="hE2W_152" type="ego_car" route="E2W" depart="1083" departSpeed="10" departLane="best"/>
   <vehicle id="hE2W_153" type="ego_car" route="E2W" depart="1097" departSpeed="10" departLane="best"/>
   <vehicle id="hW2E_154" type="ego_car" route="W2E" depart="1098" departSpeed="10" departLane="best"/>
   <vehicle id="W2E_155" type="ego_car" route="W2E" depart="1099" departSpeed="10" departLane="best"/>
   <vehicle id="N2S_156" type="ego_car" route="N2S" depart="1100" departSpeed="10" departLane="best"/>
   <vehicle id="hE2W_157" type="ego_car" route="E2W" depart="1102" departSpeed="10" departLane="best"/>
   <vehicle id="hW2E_158" type="ego_car" route="W2E" depart="1106" departSpeed="10" departLane="best"/>
   <vehicle id="E2W_159" type="ego_car" route="E2W" depart="1107" departSpeed="10" departLane="best"/>
   <vehicle id="W2E_160" type="ego_car" route="W2E" depart="1110" departSpeed="10" departLane="best"/>
   <vehicle id="E2W_161" type="ego_car" route="E2W" depart="1110" departSpeed="10" departLane="best"/>
   <vehicle id="hE2W_162" type="ego_car" route="E2W" depart="1112" departSpeed="10" departLane="best"/>
   <vehicle id="E2W_163" type="ego_car" route="E2W" depart="1113" departSpeed="10" departLane="best"/>
   <vehicle id="hE2W_164" type="ego_car" route="E2W" depart="1115" departSpeed="10" departLane="best"/>
   <vehicle id="hW2E_165" type="ego_car" route="W2E" depart="1116" departSpeed="10" departLane="best"/>
   <vehicle id="N2S_166" type="ego_car" route="N2S" depart="1120" departSpeed="10" departLane="best"/>
   <vehicle id="S2N_167" type="ego_car" route="S2N" depart="1121" departSpeed="10" departLane="best"/>
   <vehicle id="hE2W_168" type="ego_car" route="E2W" depart="1121" departSpeed="10" departLane="best"/>
   <vehicle id="W2E_169" type="ego_car" route="W2E" depart="1124" departSpeed="10" departLane="best"/>
   <vehicle id="E2W_170" type="ego_car" route="E2W" depart="1124" departSpeed="10" departLane="best"/>
   <vehicle id="hS2N_171" type="ego_car" route="S2N" depart="1125" departSpeed="10" departLane="best"/>
   <vehicle id="hE2W_172" type="ego_car" route="E2W" depart="1127" departSpeed="10" departLane="best"/>
   <vehicle id="hS2N_173" type="ego_car" route="S2N" depart="1131" departSpeed="10" departLane="best"/>
   <vehicle id="hW2E_174" type="ego_car" route="W2E" depart="1145" departSpeed="10" departLane="best"/>
   <vehicle id="hW2E_175" type="ego_car" route="W2E" depart="1151" departSpeed="10" departLane="best"/>
   <vehicle id="N2S_176" type="ego_car" route="N2S" depart="1162" departSpeed="10" departLane="best"/>
   <vehicle id="N2S_177" type="ego_car" route="N2S" depart="1169" departSpeed="10" departLane="best"/>
   <vehicle id="hE2W_178" type="ego_car" route="E2W" depart="1175" departSpeed="10" departLane="best"/>
   <vehicle id="hS2N_179" type="ego_car" route="S2N" depart="1178" departSpeed="10" departLane="best"/>
   <vehicle id="hS2N_180" type="ego_car" route="S2N" depart="1188" departSpeed="10" departLane="best"/>
   <vehicle id="hW2E_181" type="ego_car" route="W2E" depart="1190" departSpeed="10" departLane="best"/>
   <vehicle id="hS2N_182" type="ego_car" route="S2N" depart="1199" departSpeed="10" departLane="best"/>
   <vehicle id="hE2W_183" type="ego_car" route="E2W" depart="1200" departSpeed="10" departLane="best"/>
   <vehicle id="N2S_184" type="ego_car" route="N2S" depart="1202" departSpeed="10" departLane="best"/>
   <vehicle id="hN2S_185" type="ego_car" route="N2S" depart="1206" departSpeed="10" departLane="best"/>
   <vehicle id="hS2N_186" type="ego_car" route="S2N" depart="1209" departSpeed="10" departLane="best"/>
   <vehicle id="hW2E_187" type="ego_car" route="W2E" depart="1210" departSpeed="10" departLane="best"/>
   <vehicle id="W2E_188" type="ego_car" route="W2E" depart="1219" departSpeed="10" departLane="best"/>
   <vehicle id="S2N_189" type="ego_car" route="S2N" depart="1220" departSpeed="10" departLane="best"/>
   <vehicle id="hW2E_190" type="ego_car" route="W2E" depart="1226" departSpeed="10" departLane="best"/>
   <vehicle id="hN2S_191" type="ego_car" route="N2S" depart="1227" departSpeed="10" departLane="best"/>
   <vehicle id="hS2N_192" type="ego_car" route="S2N" depart="1231" departSpeed="10" departLane="best"/>
   <vehicle id="E2W_193" type="ego_car" route="E2W" depart="1235" departSpeed="10" departLane="best"/>
   <vehicle id="hE2W_194" type="ego_car" route="E2W" depart="1237" departSpeed="10" departLane="best"/>
   <vehicle id="hN2S_195" type="ego_car" route="N2S" depart="1246" departSpeed="10" departLane="best"/>
   <vehicle id="hE2W_196" type="ego_car" route="E2W" depart="1252" departSpeed="10" departLane="best"/>
   <vehicle id="hW2E_197" type="ego_car" route="W2E" depart="1257" departSpeed="10" departLane="best"/>
   <vehicle id="E2W_198" type="ego_car" route="E2W" depart="1263" departSpeed="10" departLane="best"/>
   <vehicle id="hE2W_199" type="ego_car" route="E2W" depart="1273" departSpeed="10" departLane="best"/>
   <vehicle id="hS2N_200" type="ego_car" route="S2N" depart="1295" departSpeed="10" departLane="best"/>
   <vehicle id="hE2W_201" type="ego_car" route="E2W" depart="1297" departSpeed="10" departLane="best"/>
   <vehicle id="hW2E_202" type="ego_car" route="W2E" depart="1300" departSpeed="10" departLane="best"/>
   <vehicle id="hS2N_203" type="ego_car" route="S2N" depart="1302" departSpeed="10" departLane="best"/>
   <vehicle id="S2N_204" type="ego_car" route="S2N" depart="1303" departSpeed="10" departLane="best"/>
   <vehicle id="hS2N_205" type="ego_car" route="S2N" depart="1306" departSpeed="10" departLane="best"/>
   <vehicle id="N2S_206" type="ego_car" route="N2S" depart="1307" departSpeed="10" departLane="best"/>
   <vehicle id="hE2W_207" type="ego_car" route="E2W" depart="1307" departSpeed="10" departLane="best"/>
   <vehicle id="N2S_208" type="ego_car" route="N2S" depart="1313" departSpeed="10" departLane="best"/>
   <vehicle id="hS2N_209" type="ego_car" route="S2N" depart="1313" departSpeed="10" departLane="best"/>
   <vehicle id="hE2W_210" type="ego_car" route="E2W" depart="1313" departSpeed="10" departLane="best"/>
   <vehicle id="hS2N_211" type="ego_car" route="S2N" depart="1316" departSpeed="10" departLane="best"/>
   <vehicle id="hS2N_212" type="ego_car" route="S2N" depart="1318" departSpeed="10" departLane="best"/>
   <vehicle id="hE2W_213" type="ego_car" route="E2W" depart="1326" departSpeed="10" departLane="best"/>
   <vehicle id="hW2E_214" type="ego_car" route="W2E" depart="1328" departSpeed="10" departLane="best"/>
   <vehicle id="hN2S_215" type="ego_car" route="N2S" depart="1338" departSpeed="10" departLane="best"/>
   <vehicle id="hW2E_216" type="ego_car" route="W2E" depart="1344" departSpeed="10" departLane="best"/>
   <vehicle id="hE2W_217" type="ego_car" route="E2W" depart="1351" departSpeed="10" departLane="best"/>
   <vehicle id="hW2E_218" type="ego_car" route="W2E" depart="1362" departSpeed="10" departLane="best"/>
   <vehicle id="N2S_219" type="ego_car" route="N2S" depart="1371" departSpeed="10" departLane="best"/>
   <vehicle id="hW2E_220" type="ego_car" route="W2E" depart="1373" departSpeed="10" departLane="best"/>
   <vehicle id="hS2N_221" type="ego_car" route="S2N" depart="1376" departSpeed="10" departLane="best"/>
   <vehicle id="hS2N_222" type="ego_car" route="S2N" depart="1379" departSpeed="10" departLane="best"/>
   <vehicle id="hS2N_223" type="ego_car" route="S2N" depart="1381" departSpeed="10" departLane="best"/>
   <vehicle id="hE2W_224" type="ego_car" route="E2W" depart="1382" departSpeed="10" departLane="best"/>
   <vehicle id="N2S_225" type="ego_car" route="N2S" depart="1387" departSpeed="10" departLane="best"/>
   <vehicle id="hS2N_226" type="ego_car" route="S2N" depart="1388" departSpeed="10" departLane="best"/>
   <vehicle id="hS2N_227" type="ego_car" route="S2N" depart="1389" departSpeed="10" departLane="best"/>
   <vehicle id="hW2E_228" type="ego_car" route="W2E" depart="1398" departSpeed="10" departLane="best"/>
   <vehicle id="W2E_229" type="ego_car" route="W2E" depart="1399" departSpeed="10" departLane="best"/>
   <vehicle id="hN2S_230" type="ego_car" route="N2S" depart="1400" departSpeed="10" departLane="best"/>
   <vehicle id="W2E_231" type="ego_car" route="W2E" depart="1403" departSpeed="10" departLane="best"/>
   <vehicle id="E2W_232" type="ego_car" route="E2W" depart="1409" departSpeed="10" departLane="best"/>
   <vehicle id="hE2W_233" type="ego_car" route="E2W" depart="1416" departSpeed="10" departLane="best"/>
   <vehicle id="hW2E_234" type="ego_car" route="W2E" depart="1420" departSpeed="10" departLane="best"/>
   <vehicle id="N2S_235" type="ego_car" route="N2S" depart="1425" departSpeed="10" departLane="best"/>
   <vehicle id="S2N_236" type="ego_car" route="S2N" depart="1428" departSpeed="10" departLane="best"/>
   <vehicle id="hW2E_237" type="ego_car" route="W2E" depart="1439" departSpeed="10" departLane="best"/>
   <vehicle id="N2S_238" type="ego_car" route="N2S" depart="1444" departSpeed="10" departLane="best"/>
   <vehicle id="hS2N_239" type="ego_car" route="S2N" depart="1455" departSpeed="10" departLane="best"/>
   <vehicle id="hN2S_240" type="ego_car" route="N2S" depart="1457" departSpeed="10" departLane="best"/>
   <vehicle id="hN2S_241" type="ego_car" route="N2S" depart="1459" departSpeed="10" departLane="best"/>
   <vehicle id="hW2E_242" type="ego_car" route="W2E" depart="1462" departSpeed="10" departLane="best"/>
   <vehicle id="hW2E_243" type="ego_car" route="W2E" depart="1462" departSpeed="10" departLane="best"/>
   <vehicle id="hN2S_244" type="ego_car" route="N2S" depart="1471" departSpeed="10" departLane="best"/>
   <vehicle id="W2E_245" type="ego_car" route="W2E" depart="1473" departSpeed="10" departLane="best"/>
   <vehicle id="hN2S_246" type="ego_car" route="N2S" depart="1486" departSpeed="10" departLane="best"/>
   <vehicle id="S2N_247" type="ego_car" route="S2N" depart="1492" departSpeed="10" departLane="best"/>
   <vehicle id="hE2W_248" type="ego_car" route="E2W" depart="1494" departSpeed="10" departLane="best"/>
   <vehicle id="hE2W_249" type="ego_car" route="E2W" depart="1497" departSpeed="10" departLane="best"/>
   <vehicle id="hN2S_250" type="ego_car" route="N2S" depart="1500" departSpeed="10" departLane="best"/>
   <vehicle id="hS2N_251" type="ego_car" route="S2N" depart="1502" departSpeed="10" departLane="best"/>
   <vehicle id="hE2W_252" type="ego_car" route="E2W" depart="1508" departSpeed="10" departLane="best"/>
   <vehicle id="N2S_253" type="ego_car" route="N2S" depart="1510" departSpeed="10" departLane="best"/>
   <vehicle id="hN2S_254" type="ego_car" route="N2S" depart="1515" departSpeed="10" departLane="best"/>
   <vehicle id="hN2S_255" type="ego_car" route="N2S" depart="1525" departSpeed="10" departLane="best"/>
   <vehicle id="hS2N_256" type="ego_car" route="S2N" depart="1532" departSpeed="10" departLane="best"/>
   <vehicle id="N2S_257" type="ego_car" route="N2S" depart="1534" departSpeed="10" departLane="best"/>
   <vehicle id="S2N_258" type="ego_car" route="S2N" depart="1539" departSpeed="10" departLane="best"/>
   <vehicle id="hS2N_259" type="ego_car" route="S2N" depart="1551" departSpeed="10" departLane="best"/>
   <vehicle id="hW2E_260" type="ego_car" route="W2E" depart="1554" departSpeed="10" departLane="best"/>
   <vehicle id="hW2E_261" type="ego_car" route="W2E" depart="1554" departSpeed="10" departLane="best"/>
   <vehicle id="hE2W_262" type="ego_car" route="E2W" depart="1556" departSpeed="10" departLane="best"/>
   <vehicle id="hN2S_263" type="ego_car" route="N2S" depart="1562" departSpeed="10" departLane="best"/>
   <vehicle id="W2E_264" type="ego_car" route="W2E" depart="1567" departSpeed="10" departLane="best"/>
   <vehicle id="hS2N_265" type="ego_car" route="S2N" depart="1574" departSpeed="10" departLane="best"/>
   <vehicle id="hN2S_266" type="ego_car" route="N2S" depart="1577" departSpeed="10" departLane="best"/>
   <vehicle id="hN2S_267" type="ego_car" route="N2S" depart="1590" departSpeed="10" departLane="best"/>
   <vehicle id="hS2N_268" type="ego_car" route="S2N" depart="1595" departSpeed="10" departLane="best"/>
   <vehicle id="hS2N_269" type="ego_car" route="S2N" depart="1598" departSpeed="10" departLane="best"/>
   <vehicle id="S2N_270" type="ego_car" route="S2N" depart="1599" departSpeed="10" departLane="best"/>
   <vehicle id="hN2S_271" type="ego_car" route="N2S" depart="1602" departSpeed="10" departLane="best"/>
   <vehicle id="hW2E_272" type="ego_car" route="W2E" depart="1602" departSpeed="10" departLane="best"/>
   <vehicle id="hN2S_273" type="ego_car" route="N2S" depart="1610" departSpeed="10" departLane="best"/>
   <vehicle id="hN2S_274" type="ego_car" route="N2S" depart="1633" departSpeed="10" departLane="best"/>
   <vehicle id="W2E_275" type="ego_car" route="W2E" depart="1633" departSpeed="10" departLane="best"/>
   <vehicle id="S2N_276" type="ego_car" route="S2N" depart="1639" departSpeed="10" departLane="best"/>
   <vehicle id="W2E_277" type="ego_car" route="W2E" depart="1651" departSpeed="10" departLane="best"/>
   <vehicle id="hW2E_278" type="ego_car" route="W2E" depart="1665" departSpeed="10" departLane="best"/>
   <vehicle id="hN2S_279" type="ego_car" route="N2S" depart="1680" departSpeed="10" departLane="best"/>
   <vehicle id="hS2N_280" type="ego_car" route="S2N" depart="1684" departSpeed="10" departLane="best"/>
   <vehicle id="hW2E_281" type="ego_car" route="W2E" depart="1687" departSpeed="10" departLane="best"/>
   <vehicle id="E2W_282" type="ego_car" route="E2W" depart="1687" departSpeed="10" departLane="best"/>
   <vehicle id="hN2S_283" type="ego_car" route="N2S" depart="1690" departSpeed="10" departLane="best"/>
   <vehicle id="hE2W_284" type="ego_car" route="E2W" depart="1704" departSpeed="10" departLane="best"/>
   <vehicle id="hW2E_285" type="ego_car" route="W2E" depart="1716" departSpeed="10" departLane="best"/>
   <vehicle id="hS2N_286" type="ego_car" route="S2N" depart="1720" departSpeed="10" departLane="best"/>
   <vehicle id="hN2S_287" type="ego_car" route="N2S" depart="1721" departSpeed="10" departLane="best"/>