<routes>

        <vType id = 'ego_car' vclass="evehicle" emissionClass="Energy" tau="1.5" accel="3.0" decel="3.0" color="#00FFFF" sigma="0.2" length="4.90" minGap="1.0" maxSpeed="20" carFollowing="IDM" guiShape="passenger"/>

        <route id="N2S" edges="NS -SN"/>
        <route id="S2N" edges="SN -NS"/>
        <route id="W2E" edges="WE -EW"/>
        <route id="E2W" edges="EW -WE"/>
   <vehicle id="hN2S_1" type="ego_car" route="N2S" depart="55" departSpeed="10" departLane="best"/>
   <vehicle id="N2S_2" type="ego_car" route="N2S" depart="91" departSpeed="10" departLane="best"/>
   <vehicle id="hW2E_3" type="ego_car" route="W2E" depart="92" departSpeed="10" departLane="best"/>
   <vehicle id="S2N_4" type="ego_car" route="S2N" depart="121" departSpeed="10" departLane="best"/>
   <vehicle id="hS2N_5" type="ego_car" route="S2N" depart="136" departSpeed="10" departLane="best"/>
   <vehicle id="hN2S_6" type="ego_car" route="N2S" depart="197" departSpeed="10" departLane="best"/>
   <vehicle id="hS2N_7" type="ego_car" route="S2N" depart="205" departSpeed="10" departLane="best"/>
   <vehicle id="S2N_8" type="ego_car" route="S2N" depart="207" departSpeed="10" departLane="best"/>
   <vehicle id="hW2E_9" type="ego_car" route="W2E" depart="262" departSpeed="10" departLane="best"/>
   <vehicle id="N2S_10" type="ego_car" route="N2S" depart="275" departSpeed="10" departLane="best"/>
   <vehicle id="E2W_11" type="ego_car" route="E2W" depart="284" departSpeed="10" departLane="best"/>
   <vehicle id="hS2N_12" type="ego_car" route="S2N" depart="287" departSpeed="10" departLane="best"/>
   <vehicle id="S2N_13" type="ego_car" route="S2N" depart="298" departSpeed="10" departLane="best"/>
   <vehicle id="S2N_14" type="ego_car" route="S2N" depart="302" departSpeed="10" departLane="best"/>
   <vehicle id="hN2S_15" type="ego_car" route="N2S" depart="303" departSpeed="10" departLane="best"/>
   <vehicle id="hE2W_16" type="ego_car" route="E2W" depart="313" departSpeed="10" departLane="best"/>
   <vehicle id="E2W_17" type="ego_car" route="E2W" depart="348" departSpeed="10" departLane="best"/>
   <vehicle id="hN2S_18" type="ego_car" route="N2S" depart="351" departSpeed="10" departLane="best"/>
   <vehicle id="hN2S_19" type="ego_car" route="N2S" depart="371" departSpeed="10" departLane="best"/>
   <vehicle id="E2W_20" type="ego_car" route="E2W" depart="374" departSpeed="10" departLane="best"/>
   <vehicle id="hE2W_21" type="ego_car" route="E2W" depart="374" departSpeed="10" departLane="best"/>
   <vehicle id="hE2W_22" type="ego_car" route="E2W" depart="385" departSpeed="10" departLane="best"/>
   <vehicle id="hE2W_23" type="ego_car" route="E2W" depart="386" departSpeed="10" departLane="best"/>
   <vehicle id="E2W_24" type="ego_car" route="E2W" depart="391" departSpeed="10" departLane="best"/>
   <vehicle id="hW2E_25" type="ego_car" route="W2E" depart="399" departSpeed="10" departLane="best"/>
   <vehicle id="hN2S_26" type="ego_car" route="N2S" depart="406" departSpeed="10" departLane="best"/>
   <vehicle id="S2N_27" type="ego_car" route="S2N" depart="409" departSpeed="10" departLane="best"/>
   <vehicle id="N2S_28" type="ego_car" route="N2S" depart="409" departSpeed="10" departLane="best"/>
   <vehicle id="hE2W_29" type="ego_car" route="E2W" depart="411" departSpeed="10" departLane="best"/>
   <vehicle id="hS2N_30" type="ego_car" route="S2N" depart="417" departSpeed="10" departLane="best"/>
   <vehicle id="hW2E_31" type="ego_car" route="W2E" depart="419" departSpeed="10" departLane="best"/>
   <vehicle id="hW2E_32" type="ego_car" route="W2E" depart="419" departSpeed="10" departLane="best"/>
   <vehicle id="hW2E_33" type="ego_car" route="W2E" depart="420" departSpeed="10" departLane="best"/>
   <vehicle id="hS2N_34" type="ego_car" route="S2N" depart="428" departSpeed="10" departLane="best"/>
   <vehicle id="hN2S_35" type="ego_car" route="N2S" depart="429" departSpeed="10" departLane="best"/>
   <vehicle id="hS2N_36" type="ego_car" route="S2N" depart="429" departSpeed="10" departLane="best"/>
   <vehicle id="hS2N_37" type="ego_car" route="S2N" depart="437" departSpeed="10" departLane="best"/>
   <vehicle id="hW2E_38" type="ego_car" route="W2E" depart="438" departSpeed="10" departLane="best"/>
   <vehicle id="hE2W_39" type="ego_car" route="E2W" depart="448" departSpeed="10" departLane="best"/>
   <vehicle id="hE2W_40" type="ego_car" route="E2W" depart="461" departSpeed="10" departLane="best"/>
   <vehicle id="hW2E_41" type="ego_car" route="W2E" depart="463" departSpeed="10" departLane="best"/>
   <vehicle id="N2S_42" type="ego_car" route="N2S" depart="465" departSpeed="10" departLane="best"/>
   <vehicle id="N2S_43" type="ego_car" route="N2S" depart="468" departSpeed="10" departLane="best"/>
   <vehicle id="hN2S_44" type="ego_car" route="N2S" depart="470" departSpeed="10" departLane="best"/>
   <vehicle id="S2N_45" type="ego_car" route="S2N" depart="472" departSpeed="10" departLane="best"/>
   <vehicle id="S2N_46" type="ego_car" route="S2N" depart="475" departSpeed="10" departLane="best"/>
   <vehicle id="W2E_47" type="ego_car" route="W2E" depart="496" departSpeed="10" departLane="best"/>
   <vehicle id="hE2W_48" type="ego_car" route="E2W" depart="496" departSpeed="10" departLane="best"/>
   <vehicle id="hW2E_49" type="ego_car" route="W2E" depart="499" departSpeed="10" departLane="best"/>
   <vehicle id="hS2N_50" type="ego_car" route="S2N" depart="502" departSpeed="10" departLane="best"/>
   <vehicle id="hS2N_51" type="ego_car" route="S2N" depart="506" departSpeed="10" departLane="best"/>
   <vehicle id="S2N_52" type="ego_car" route="S2N" depart="507" departSpeed="10" departLane="best"/>
   <vehicle id="hE2W_53" type="ego_car" route="E2W" depart="510" departSpeed="10" departLane="best"/>
   <vehicle id="hE2W_54" type="ego_car" route="E2W" depart="510" departSpeed="10" departLane="best"/>
   <vehicle id="hS2N_55" type="ego_car" route="S2N" depart="510" departSpeed="10" departLane="best"/>
   <vehicle id="hW2E_56" type="ego_car" route="W2E" depart="516" departSpeed="10" departLane="best"/>
   <vehicle id="N2S_57" type="ego_car" route="N2S" depart="518" departSpeed="10" departLane="best"/>
   <vehicle id="hW2E_58" type="ego_car" route="W2E" depart="526" departSpeed="10" departLane="best"/>
   <vehicle id="W2E_59" type="ego_car" route="W2E" depart="529" departSpeed="10" departLane="best"/>
   <vehicle id="hW2E_60" type="ego_car" route="W2E" depart="534" departSpeed="10" departLane="best"/>
   <vehicle id="hW2E_61" type="ego_car" route="W2E" depart="541" departSpeed="10" departLane="best"/>
   <vehicle id="hE2W_62" type="ego_car" route="E2W" depart="553" departSpeed="10" departLane="best"/>
   <vehicle id="hE2W_63" type="ego_car" route="E2W" depart="553" departSpeed="10" departLane="best"/>
   <vehicle id="hS2N_64" type="ego_car" route="S2N" depart="562" departSpeed="10" departLane="best"/>
   <vehicle id="hW2E_65" type="ego_car" route="W2E" depart="567" departSpeed="10" departLane="best"/>
   <vehicle id="hE2W_66" type="ego_car" route="E2W" depart="570" departSpeed="10" departLane="best"/>
   <vehicle id="E2W_67" type="ego_car" route="E2W" depart="573" departSpeed="10" departLane="best"/>
   <vehicle id="N2S_68" type="ego_car" route="N2S" depart="589" departSpeed="10" departLane="best"/>
   <vehicle id="hE2W_69" type="ego_car" route="E2W" depart="600" departSpeed="10" departLane="best"/>
   <vehicle id="hE2W_70" type="ego_car" route="E2W" depart="602" departSpeed="10" departLane="best"/>
   <vehicle id="N2S_71" type="ego_car" route="N2S" depart="608" departSpeed="10" departLane="best"/>
   <vehicle id="hE2W_72" type="ego_car" route="E2W" depart="609" departSpeed="10" departLane="best"/>
   <vehicle id="hW2E_73" type="ego_car" route="W2E" depart="615" departSpeed="10" departLane="best"/>
   <vehicle id="hE2W_74" type="ego_car" route="E2W" depart="620" departSpeed="10" departLane="best"/>
   <vehicle id="hN2S_75" type="ego_car" route="N2S" depart="622" departSpeed="10" departLane="best"/>
   <vehicle id="hN2S_76" type="ego_car" route="N2S" depart="622" departSpeed="10" departLane="best"/>
   <vehicle id="hE2W_77" type="ego_car" route="E2W" depart="633" departSpeed="10" departLane="best"/>
   <vehicle id="hE2W_78" type="ego_car" route="E2W" depart="635" departSpeed="10" departLane="best"/>
   <vehicle id="hE2W_79" type="ego_car" route="E2W" depart="637" departSpeed="10" departLane="best"/>
   <vehicle id="N2S_80" type="ego_car" route="N2S" depart="638" departSpeed="10" departLane="best"/>
   <vehicle id="hE2W_81" type="ego_car" route="E2W" depart="639" departSpeed="10" departLane="best"/>
   <vehicle id="hE2W_82" type="ego_car" route="E2W" depart="640" departSpeed="10" departLane="best"/>
   <vehicle id="hS2N_83" type="ego_car" route="S2N" depart="641" departSpeed="10" departLane="best"/>
   <vehicle id="hN2S_84" type="ego_car" route="N2S" depart="652" departSpeed="10" departLane="best"/>
   <vehicle id="hN2S_85" type="ego_car" route="N2S" depart="656" departSpeed="10" departLane="best"/>
   <vehicle id="E2W_86" type="ego_car" route="E2W" depart="660" departSpeed="10" departLane="best"/>
   <vehicle id="hW2E_87" type="ego_car" route="W2E" depart="661" departSpeed="10" departLane="best"/>
   <vehicle id="hW2E_88" type="ego_car" route="W2E" depart="666" departSpeed="10" departLane="best"/>
   <vehicle id="N2S_89" type="ego_car" route="N2S" depart="669" departSpeed="10" departLane="best"/>
   <vehicle id="N2S_90" type="ego_car" route="N2S" depart="671" departSpeed="10" departLane="best"/>
   <vehicle id="N2S_91" type="ego_car" route="N2S" depart="676" departSpeed="10" departLane="best"/>
   <vehicle id="hS2N_92" type="ego_car" route="S2N" depart="677" departSpeed="10" departLane="best"/>
   <vehicle id="hN2S_93" type="ego_car" route="N2S" depart="678" departSpeed="10" departLane="best"/>
   <vehicle id="hW2E_94" type="ego_car" route="W2E" depart="683" departSpeed="10" departLane="best"/>
   <vehicle id="E2W_95" type="ego_car" route="E2W" depart="684" departSpeed="10" departLane="best"/>
   <vehicle id="hN2S_96" type="ego_car" route="N2S" depart="686" departSpeed="10" departLane="best"/>
   <vehicle id="hW2E_97" type="ego_car" route="W2E" depart="687" departSpeed="10" departLane="best"/>
   <vehicle id="hE2W_98" type="ego_car" route="E2W" depart="690" departSpeed="10" departLane="best"/>
   <vehicle id="hS2N_99" type="ego_car" route="S2N" depart="695" departSpeed="10" departLane="best"/>
   <vehicle id="hN2S_100" type="ego_car" route="N2S" depart="695" departSpeed="10" departLane="best"/>
   <vehicle id="N2S_101" type="ego_car" route="N2S" depart="695" departSpeed="10" departLane="best"/>
   <vehicle id="hS2N_102" type="ego_car" route="S2N" depart="699" departSpeed="10" departLane="best"/>
   <vehicle id="hS2N_103" type="ego_car" route="S2N" depart="702" departSpeed="10" departLane="best"/>
   <vehicle id="hS2N_104" type="ego_car" route="S2N" depart="704" departSpeed="10" departLane="best"/>
   <vehicle id="hN2S_105" type="ego_car" route="N2S" depart="709" departSpeed="10" departLane="best"/>
   <vehicle id="hS2N_106" type="ego_car" route="S2N" depart="712" departSpeed="10" departLane="best"/>
   <vehicle id="S2N_107" type="ego_car" route="S2N" depart="724" departSpeed="10" departLane="best"/>
   <vehicle id="hN2S_108" type="ego_car" route="N2S" depart="736" departSpeed="10" departLane="best"/>
   <vehicle id="hS2N_109" type="ego_car" route="S2N" depart="737" departSpeed="10" departLane="best"/>
   <vehicle id="hE2W_110" type="ego_car" route="E2W" depart="739" departSpeed="10" departLane="best"/>
   <vehicle id="hS2N_111" type="ego_car" route="S2N" depart="741" departSpeed="10" departLane="best"/>
   <vehicle id="hN2S_112" type="ego_car" route="N2S" depart="748" departSpeed="10" departLane="best"/>
   <vehicle id="hW2E_113" type="ego_car" route="W2E" depart="755" departSpeed="10" departLane="best"/>
   <vehicle id="E2W_114" type="ego_car" route="E2W" depart="758" departSpeed="10" departLane="best"/>
   <vehicle id="hW2E_115" type="ego_car" route="W2E" depart="763" departSpeed="10" departLane="best"/>
   <vehicle id="hN2S_116" type="ego_car" route="N2S" depart="765" departSpeed="10" departLane="best"/>
   <vehicle id="hS2N_117" type="ego_car" route="S2N" depart="766" departSpeed="10" departLane="best"/>
   <vehicle id="hW2E_118" type="ego_car" route="W2E" depart="774" departSpeed="10" departLane="best"/>
   <vehicle id="hN2S_119" type="ego_car" route="N2S" depart="776" departSpeed="10" departLane="best"/>
   <vehicle id="N2S_120" type="ego_car" route="N2S" depart="779" departSpeed="10" departLane="best"/>
   <vehicle id="hN2S_121" type="ego_car" route="N2S" depart="780" departSpeed="10" departLane="best"/>
   <vehicle id="hN2S_122" type="ego_car" route="N2S" depart="782" departSpeed="10" departLane="best"/>
   <vehicle id="hE2W_123" type="ego_car" route="E2W" depart="786" departSpeed="10" departLane="best"/>
   <vehicle id="hE2W_124" type="ego_car" route="E2W" depart="789" departSpeed="10" departLane="best"/>
   <vehicle id="W2E_125" type="ego_car" route="W2E" depart="793" departSpeed="10" departLane="best"/>
   <vehicle id="hS2N_126" type="ego_car" route="S2N" depart="800" departSpeed="10" departLane="best"/>
   <vehicle id="N2S_127" type="ego_car" route="N2S" depart="805" departSpeed="10" departLane="best"/>
   <vehicle id="hE2W_128" type="ego_car" route="E2W" depart="808" departSpeed="10" departLane="best"/>
   <vehicle id="hW2E_129" type="ego_car" route="W2E" depart="812" departSpeed="10" departLane="best"/>
   <vehicle id="hE2W_130" type="ego_car" route="E2W" depart="816" departSpeed="10" departLane="best"/>
   <vehicle id="hE2W_131" type="ego_car" route="E2W" depart="817" departSpeed="10" departLane="best"/>
   <vehicle id="N2S_132" type="ego_car" route="N2S" depart="817" departSpeed="10" departLane="best"/>
   <vehicle id="hW2E_133" type="ego_car" route="W2E" depart="819" departSpeed="10" departLane="best"/>
   <vehicle id="hS2N_134" type="ego_car" route="S2N" depart="824" departSpeed="10" departLane="best"/>
   <vehicle id="E2W_135" type="ego_car" route="E2W" depart="824" departSpeed="10" departLane="best"/>
   <vehicle id="hW2E_136" type="ego_car" route="W2E" depart="825" departSpeed="10" departLane="best"/>
   <vehicle id="E2W_137" type="ego_car" route="E2W" depart="831" departSpeed="10" departLane="best"/>
   <vehicle id="hS2N_138" type="ego_car" route="S2N" depart="834" departSpeed="10" departLane="best"/>
   <vehicle id="hN2S_139" type="ego_car" route="N2S" depart="835" departSpeed="10" departLane="best"/>
   <vehicle id="S2N_140" type="ego_car" route="S2N" depart="836" departSpeed="10" departLane="best"/>
   <vehicle id="hE2W_141" type="ego_car" route="E2W" depart="837" departSpeed="10" departLane="best"/>
   <vehicle id="hW2E_142" type="ego_car" route="W2E" depart="841" departSpeed="10" departLane="best"/>
   <vehicle id="hS2N_143" type="ego_car" route="S2N" depart="842" departSpeed="10" departLane="best"/>
   <vehicle id="hW2E_144" type="ego_car" route="W2E" depart="843" departSpeed="10" departLane="best"/>
   <vehicle id="hS2N_145" type="ego_car" route="S2N" depart="845" departSpeed="10" departLane="best"/>
   <vehicle id="W2E_146" type="ego_car" route="W2E" depart="849" departSpeed="10" departLane="best"/>
   <vehicle id="hE2W_147" type="ego_car" route="E2W" depart="856" departSpeed="10" departLane="best"/>
   <vehicle id="hE2W_148" type="ego_car" route="E2W" depart="858" departSpeed="10" departLane="best"/>
   <vehicle id="W2E_149" type="ego_car" route="W2E" depart="859" departSpeed="10" departLane="best"/>
   <vehicle id="hW2E_150" type="ego_car" route="W2E" depart="862" departSpeed="10" departLane="best"/>
   <vehicle id="hW2E_151" type="ego_car" route="W2E" depart="871" departSpeed="10" departLane="best"/>
   <vehicle id="hW2E_152" type="ego_car" route="W2E" depart="873" departSpeed="10" departLane="best"/>
   <vehicle id="hE2W_153" type="ego_car" route="E2W" depart="879" departSpeed="10" departLane="best"/>
   <vehicle id="hW2E_154" type="ego_car" route="W2E" depart="884" departSpeed="10" departLane="best"/>
   <vehicle id="S2N_155" type="ego_car" route="S2N" depart="888" departSpeed="10" departLane="best"/>
   <vehicle id="S2N_156" type="ego_car" route="S2N" depart="894" departSpeed="10" departLane="best"/>
   <vehicle id="hS2N_157" type="ego_car" route="S2N" depart="895" departSpeed="10" departLane="best"/>
   <vehicle id="hW2E_158" type="ego_car" route="W2E" depart="896" departSpeed="10" departLane="best"/>
   <vehicle id="W2E_159" type="ego_car" route="W2E" depart="899" departSpeed="10" departLane="best"/>
   <vehicle id="N2S_160" type="ego_car" route="N2S" depart="915" departSpeed="10" departLane="best"/>
   <vehicle id="E2W_161" type="ego_car" route="E2W" depart="915" departSpeed="10" departLane="best"/>
   <vehicle id="hW2E_162" type="ego_car" route="W2E" depart="918" departSpeed="10" departLane="best"/>
   <vehicle id="S2N_163" type="ego_car" route="S2N" depart="920" departSpeed="10" departLane="best"/>
   <vehicle id="hW2E_164" type="ego_car" route="W2E" depart="925" departSpeed="10" departLane="best"/>
   <vehicle id="hW2E_165" type="ego_car" route="W2E" depart="931" departSpeed="10" departLane="best"/>
   <vehicle id="W2E_166" type="ego_car" route="W2E" depart="932" departSpeed="10" departLane="best"/>
   <vehicle id="N2S_167" type="ego_car" route="N2S" depart="935" departSpeed="10" departLane="best"/>
   <vehicle id="hS2N_168" type="ego_car" route="S2N" depart="936" departSpeed="10" departLane="best"/>
   <vehicle id="W2E_169" type="ego_car" route="W2E" depart="939" departSpeed="10" departLane="best"/>
   <vehicle id="E2W_170" type="ego_car" route="E2W" depart="943" departSpeed="10" departLane="best"/>
   <vehicle id="hS2N_171" type="ego_car" route="S2N" depart="946" departSpeed="10" departLane="best"/>
   <vehicle id="hN2S_172" type="ego_car" route="N2S" depart="947" departSpeed="10" departLane="best"/>
   <vehicle id="hW2E_173" type="ego_car" route="W2E" depart="947" departSpeed="10" departLane="best"/>
   <vehicle id="hE2W_174" type="ego_car" route="E2W" depart="947" departSpeed="10" departLane="best"/>
   <vehicle id="hE2W_175" type="ego_car" route="E2W" depart="947" departSpeed="10" departLane="best"/>
   <vehicle id="E2W_176" type="ego_car" route="E2W" depart="949" departSpeed="10" departLane="best"/>
   <vehicle id="N2S_177" type="ego_car" route="N2S" depart="950" departSpeed="10" departLane="best"/>
   <vehicle id="hE2W_178" type="ego_car" route="E2W" depart="965" departSpeed="10" departLane="best"/>
   <vehicle id="hW2E_179" type="ego_car" route="W2E" depart="972" departSpeed="10" departLane="best"/>
   <vehicle id="hE2W_180" type="ego_car" route="E2W" depart="975" departSpeed="10" departLane="best"/>
   <vehicle id="hS2N_181" type="ego_car" route="S2N" depart="980" departSpeed="10" departLane="best"/>
   <vehicle id="hN2S_182" type="ego_car" route="N2S" depart="980" departSpeed="10" departLane="best"/>
   <vehicle id="hS2N_183" type="ego_car" route="S2N" depart="982" departSpeed="10" departLane="best"/>
   <vehicle id="S2N_184" type="ego_car" route="S2N" depart="988" departSpeed="10" departLane="best"/>
   <vehicle id="hN2S_185" type="ego_car" route="N2S" depart="992" departSpeed="10" departLane="best"/>
   <vehicle id="hE2W_186" type="ego_car" route="E2W" depart="993" departSpeed="10" departLane="best"/>
   <vehicle id="hW2E_187" type="ego_car" route="W2E" depart="997" departSpeed="10" departLane="best"/>
   <vehicle id="E2W_188" type="ego_car" route="E2W" depart="997" departSpeed="10" departLane="best"/>
   <vehicle id="E2W_189" type="ego_car" route="E2W" depart="1001" departSpeed="10" departLane="best"/>
   <vehicle id="hS2N_190" type="ego_car" route="S2N" depart="1002" departSpeed="10" departLane="best"/>
   <vehicle id="hS2N_191" type="ego_car" route="S2N" depart="1004" departSpeed="10" departLane="best"/>
   <vehicle id="hN2S_192" type="ego_car" route="N2S" depart="1005" departSpeed="10" departLane="best"/>
   <vehicle id="W2E_193" type="ego_car" route="W2E" depart="1005" departSpeed="10" departLane="best"/>
   <vehicle id="hE2W_194" type="ego_car" route="E2W" depart="1007" departSpeed="10" departLane="best"/>
   <vehicle id="hS2N_195" type="ego_car" route="S2N" depart="1011" departSpeed="10" departLane="best"/>
   <vehicle id="hN2S_196" type="ego_car" route="N2S" depart="1013" departSpeed="10" departLane="best"/>
   <vehicle id="hN2S_197" type="ego_car" route="N2S" depart="1014" departSpeed="10" departLane="best"/>
   <vehicle id="W2E_198" type="ego_car" route="W2E" depart="1021" departSpeed="10" departLane="best"/>
   <vehicle id="hW2E_199" type="ego_car" route="W2E" depart="1021" departSpeed="10" departLane="best"/>
   <vehicle id="hW2E_200" type="ego_car" route="W2E" depart="1026" departSpeed="10" departLane="best"/>
   <vehicle id="hE2W_201" type="ego_car" route="E2W" depart="1034" departSpeed="10" departLane="best"/>
   <vehicle id="hE2W_202" type="ego_car" route="E2W" depart="1035" departSpeed="10" departLane="best"/>
   <vehicle id="hW2E_203" type="ego_car" route="W2E" depart="1049" departSpeed="10" departLane="best"/>
   <vehicle id="S2N_204" type="ego_car" route="S2N" depart="1060" departSpeed="10" departLane="best"/>
   <vehicle id="hW2E_205" type="ego_car" route="W2E" depart="1063" departSpeed="10" departLane="best"/>
   <vehicle id="W2E_206" type="ego_car" route="W2E" depart="1074" departSpeed="10" departLane="best"/>
   <vehicle id="hN2S_207" type="ego_car" route="N2S" depart="1076" departSpeed="10" departLane="best"/>
   <vehicle id="S2N_208" type="ego_car" route="S2N" depart="1076" departSpeed="10" departLane="best"/>
   <vehicle id="hN2S_209" type="ego_car" route="N2S" depart="1078" departSpeed="10" departLane="best"/>
   <vehicle id="hS2N_210" type="ego_car" route="S2N" depart="1078" departSpeed="10" departLane="best"/>
   <vehicle id="hE2W_211" type="ego_car" route="E2W" depart="1083" departSpeed="10" departLane="best"/>
   <vehicle id="hE2W_212" type="ego_car" route="E2W" depart="1088" departSpeed="10" departLane="best"/>
   <vehicle id="hN2S_213" type="ego_car" route="N2S" depart="1092" departSpeed="10" departLane="best"/>
   <vehicle id="hS2N_214" type="ego_car" route="S2N" depart="1097" departSpeed="10" departLane="best"/>
   <vehicle id="hN2S_215" type="ego_car" route="N2S" depart="1099" departSpeed="10" departLane="best"/>
   <vehicle id="hN2S_216" type="ego_car" route="N2S" depart="1099" departSpeed="10" departLane="best"/>
   <vehicle id="hE2W_217" type="ego_car" route="E2W" depart="1107" departSpeed="10" departLane="best"/>
   <vehicle id="hW2E_218" type="ego_car" route="W2E" depart="1108" departSpeed="10" departLane="best"/>
   <vehicle id="E2W_219" type="ego_car" route="E2W" depart="1108" departSpeed="10" departLane="best"/>
   <vehicle id="hN2S_220" type="ego_car" route="N2S" depart="1114" departSpeed="10" departLane="best"/>
   <vehicle id="hW2E_221" type="ego_car" route="W2E" depart="1117" departSpeed="10" departLane="best"/>
   <vehicle id="hE2W_222" type="ego_car" route="E2W" depart="1129" departSpeed="10" departLane="best"/>
   <vehicle id="hS2N_223" type="ego_car" route="S2N" depart="1132" departSpeed="10" departLane="best"/>
   <vehicle id="hS2N_224" type="ego_car" route="S2N" depart="1145" departSpeed="10" departLane="best"/>
   <vehicle id="S2N_225" type="ego_car" route="S2N" depart="1145" departSpeed="10" departLane="best"/>
   <vehicle id="hS2N_226" type="ego_car" route="S2N" depart="1159" departSpeed="10" departLane="best"/>
   <vehicle id="hS2N_227" type="ego_car" route="S2N" depart="1162" departSpeed="10" departLane="best"/>
   <vehicle id="hN2S_228" type="ego_car" route="N2S" depart="1165" departSpeed="10" departLane="best"/>
   <vehicle id="N2S_229" type="ego_car" route="N2S" depart="1181" departSpeed="10" departLane="best"/>
   <vehicle id="hS2N_230" type="ego_car" route="S2N" depart="1181" departSpeed="10" departLane="best"/>
   <vehicle id="E2W_231" type="ego_car" route="E2W" depart="1186" departSpeed="10" departLane="best"/>
   <vehicle id="W2E_232" type="ego_car" route="W2E" depart="1193" departSpeed="10" departLane="best"/>
   <vehicle id="hS2N_233" type="ego_car" route="S2N" depart="1193" departSpeed="10" departLane="best"/>
   <vehicle id="hS2N_234" type="ego_car" route="S2N" depart="1194" departSpeed="10" departLane="best"/>
   <vehicle id="N2S_235" type="ego_car" route="N2S" depart="1195" departSpeed="10" departLane="best"/>
   <vehicle id="W2E_236" type="ego_car" route="W2E" depart="1200" departSpeed="10" departLane="best"/>
   <vehicle id="hW2E_237" type="ego_car" route="W2E" depart="1203" departSpeed="10" departLane="best"/>
   <vehicle id="E2W_238" type="ego_car" route="E2W" depart="1206" departSpeed="10" departLane="best"/>
   <vehicle id="hE2W_239" type="ego_car" route="E2W" depart="1209" departSpeed="10" departLane="best"/>
   <vehicle id="hN2S_240" type="ego_car" route="N2S" depart="1211" departSpeed="10" departLane="best"/>
   <vehicle id="hE2W_241" type="ego_car" route="E2W" depart="1212" departSpeed="10" departLane="best"/>
   <vehicle id="hS2N_242" type="ego_car" route="S2N" depart="1214" departSpeed="10" departLane="best"/>
   <vehicle id="hS2N_243" type="ego_car" route="S2N" depart="1223" departSpeed="10" departLane="best"/>
   <vehicle id="hS2N_244" type="ego_car" route="S2N" depart="1226" departSpeed="10" departLane="best"/>
   <vehicle id="W2E_245" type="ego_car" route="W2E" depart="1229" departSpeed="10" departLane="best"/>
   <vehicle id="hN2S_246" type="ego_car" route="N2S" depart="1231" departSpeed="10" departLane="best"/>
   <vehicle id="S2N_247" type="ego_car" route="S2N" depart="1231" departSpeed="10" departLane="best"/>
   <vehicle id="hW2E_248" type="ego_car" route="W2E" depart="1240" departSpeed="10" departLane="best"/>
   <vehicle id="hE2W_249" type="ego_car" route="E2W" depart="1248" departSpeed="10" departLane="best"/>
   <vehicle id="hS2N_250" type="ego_car" route="S2N" depart="1251" departSpeed="10" departLane="best"/>
   <vehicle id="hN2S_251" type="ego_car" route="N2S" depart="1259" departSpeed="10" departLane="best"/>
   <vehicle id="hW2E_252" type="ego_car" route="W2E" depart="1264" departSpeed="10" departLane="best"/>
   <vehicle id="W2E_253" type="ego_car" route="W2E" depart="1271" departSpeed="10" departLane="best"/>
   <vehicle id="hW2E_254" type="ego_car" route="W2E" depart="1276" departSpeed="10" departLane="best"/>
   <vehicle id="hE2W_255" type="ego_car" route="E2W" depart="1280" departSpeed="10" departLane="best"/>
   <vehicle id="hS2N_256" type="ego_car" route="S2N" depart="1282" departSpeed="10" departLane="best"/>
   <vehicle id="E2W_257" type="ego_car" route="E2W" depart="1282" departSpeed="10" departLane="best"/>
   <vehicle id="N2S_258" type="ego_car" route="N2S" depart="1289" departSpeed="10" departLane="best"/>
   <vehicle id="hS2N_259" type="ego_car" route="S2N" depart="1290" departSpeed="10" departLane="best"/>
   <vehicle id="hE2W_260" type="ego_car" route="E2W" depart="1291" departSpeed="10" departLane="best"/>
   <vehicle id="hS2N_261" type="ego_car" route="S2N" depart="1298" departSpeed="10" departLane="best"/>
   <vehicle id="hN2S_262" type="ego_car" route="N2S" depart="1307" departSpeed="10" departLane="best"/>
   <vehicle id="hS2N_263" type="ego_car" route="S2N" depart="1309" departSpeed="10" departLane="best"/>
   <vehicle id="E2W_264" type="ego_car" route="E2W" depart="1311" departSpeed="10" departLane="best"/>
   <vehicle id="hW2E_265" type="ego_car" route="W2E" depart="1313" departSpeed="10" departLane="best"/>
   <vehicle id="hW2E_266" type="ego_car" route="W2E" depart="1314" departSpeed="10" departLane="best"/>
   <vehicle id="hN2S_267" type="ego_car" route="N2S" depart="1316" departSpeed="10" departLane="best"/>
   <vehicle id="hN2S_268" type="ego_car" route="N2S" depart="1318" departSpeed="10" departLane="best"/>
   <vehicle id="hN2S_269" type="ego_car" route="N2S" depart="1322" departSpeed="10" departLane="best"/>
   <vehicle id="N2S_270" type="ego_car" route="N2S" depart="1327" departSpeed="10" departLane="best"/>
   <vehicle id="hW2E_271" type="ego_car" route="W2E" depart="1333" departSpeed="10" departLane="best"/>
   <vehicle id="hE2W_272" type="ego_car" route="E2W" depart="1348" departSpeed="10" departLane="best"/>
   <vehicle id="hE2W_273" type="ego_car" route="E2W" depart="1354" departSpeed="10" departLane="best"/>
   <vehicle id="hW2E_274" type="ego_car" route="W2E" depart="1356" departSpeed="10" departLane="best"/>
   <vehicle id="S2N_275" type="ego_car" route="S2N" depart="1359" departSpeed="10" departLane="best"/>
   <vehicle id="E2W_276" type="ego_car" route="E2W" depart="1360" departSpeed="10" departLane="best"/>
   <vehicle id="W2E_277" type="ego_car" route="W2E" depart="1361" departSpeed="10" departLane="best"/>
   <vehicle id="hN2S_278" type="ego_car" route="N2S" depart="1363" departSpeed="10" departLane="best"/>
   <vehicle id="hW2E_279" type="ego_car" route="W2E" depart="1395" departSpeed="10" departLane="best"/>
   <vehicle id="hS2N_280" type="ego_car" route="S2N" depart="1404" departSpeed="10" departLane="best"/>
   <vehicle id="hE2W_281" type="ego_car" route="E2W" depart="1404" departSpeed="10" departLane="best"/>
   <vehicle id="N2S_282" type="ego_car" route="N2S" depart="1411" departSpeed="10" departLane="best"/>
   <vehicle id="hS2N_283" type="ego_car" route="S2N" depart="1414" departSpeed="10" departLane="best"/>
   <vehicle id="hN2S_284" type="ego_car" route="N2S" depart="1415" departSpeed="10" departLane="best"/>
   <vehicle id="hN2S_285" type="ego_car" route="N2S" depart="1416" departSpeed="10" departLane="best"/>
   <vehicle id="hS2N_286" type="ego_car" route="S2N" depart="1424" departSpeed="10" departLane="best"/>
   <vehicle id="hN2S_287" type="ego_car" route="N2S" depart="1426" departSpeed="10" departLane="best"/>
   <vehicle id="W2E_288" type="ego_car" route="W2E" depart="1427" departSpeed="10" departLane="best"/>