<routes>

        <vType id = 'ego_car' vclass="evehicle" emissionClass="Energy" tau="1.5" accel="3.0" decel="3.0" color="#00FFFF" sigma="0.2" length="4.90" minGap="1.0" maxSpeed="20" carFollowing="IDM" guiShape="passenger"/>

        <route id="N2S" edges="NS -SN"/>
        <route id="S2N" edges="SN -NS"/>
        <route id="W2E" edges="WE -EW"/>
        <route id="E2W" edges="EW -WE"/>
   <vehicle id="hW2E_1" type="ego_car" route="W2E" depart="81" departSpeed="10" departLane="best"/>
   <vehicle id="E2W_2" type="ego_car" route="E2W" depart="110" departSpeed="10" departLane="best"/>
   <vehicle id="hS2N_3" type="ego_car" route="S2N" depart="132" departSpeed="10" departLane="best"/>
   <vehicle id="E2W_4" type="ego_car" route="E2W" depart="143" departSpeed="10" departLane="best"/>
   <vehicle id="hW2E_5" type="ego_car" route="W2E" depart="147" departSpeed="10" departLane="best"/>
   <vehicle id="hW2E_6" type="ego_car" route="W2E" depart="171" departSpeed="10" departLane="best"/>
   <vehicle id="hW2E_7" type="ego_car" route="W2E" depart="198" departSpeed="10" departLane="best"/>
   <vehicle id="S2N_8" type="ego_car" route="S2N" depart="210" departSpeed="10" departLane="best"/>
   <vehicle id="hE2W_9" type="ego_car" route="E2W" depart="218" departSpeed="10" departLane="best"/>
   <vehicle id="W2E_10" type="ego_car" route="W2E" depart="220" departSpeed="10" departLane="best"/>
   <vehicle id="W2E_11" type="ego_car" route="W2E" depart="220" departSpeed="10" departLane="best"/>
   <vehicle id="hW2E_12" type="ego_car" route="W2E" depart="237" departSpeed="10" departLane="best"/>
   <vehicle id="S2N_13" type="ego_car" route="S2N" depart="254" departSpeed="10" departLane="best"/>
   <vehicle id="N2S_14" type="ego_car" route="N2S" depart="257" departSpeed="10" departLane="best"/>
   <vehicle id="hE2W_15" type="ego_car" route="E2W" depart="259" departSpeed="10" departLane="best"/>
   <vehicle id="hE2W_16" type="ego_car" route="E2W" depart="263" departSpeed="10" departLane="best"/>
   <vehicle id="W2E_17" type="ego_car" route="W2E" depart="274" departSpeed="10" departLane="best"/>
   <vehicle id="hS2N_18" type="ego_car" route="S2N" depart="276" departSpeed="10" departLane="best"/>
   <vehicle id="hW2E_19" type="ego_car" route="W2E" depart="276" departSpeed="10" departLane="best"/>
   <vehicle id="E2W_20" type="ego_car" route="E2W" depart="277" departSpeed="10" departLane="best"/>
   <vehicle id="hE2W_21" type="ego_car" route="E2W" depart="297" departSpeed="10" departLane="best"/>
   <vehicle id="hW2E_22" type="ego_car" route="W2E" depart="312" departSpeed="10" departLane="best"/>
   <vehicle id="hS2N_23" type="ego_car" route="S2N" depart="320" departSpeed="10" departLane="best"/>
   <vehicle id="N2S_24" type="ego_car" route="N2S" depart="321" departSpeed="10" departLane="best"/>
   <vehicle id="hS2N_25" type="ego_car" route="S2N" depart="341" departSpeed="10" departLane="best"/>
   <vehicle id="hW2E_26" type="ego_car" route="W2E" depart="343" departSpeed="10" departLane="best"/>
   <vehicle id="W2E_27" type="ego_car" route="W2E" depart="347" departSpeed="10" departLane="best"/>
   <vehicle id="E2W_28" type="ego_car" route="E2W" depart="357" departSpeed="10" departLane="best"/>
   <vehicle id="hW2E_29" type="ego_car" route="W2E" depart="369" departSpeed="10" departLane="best"/>
   <vehicle id="hN2S_30" type="ego_car" route="N2S" depart="370" departSpeed="10" departLane="best"/>
   <vehicle id="hS2N_31" type="ego_car" route="S2N" depart="371" departSpeed="10" departLane="best"/>
   <vehicle id="hE2W_32" type="ego_car" route="E2W" depart="378" departSpeed="10" departLane="best"/>
   <vehicle id="hW2E_33" type="ego_car" route="W2E" depart="383" departSpeed="10" departLane="best"/>
   <vehicle id="hW2E_34" type="ego_car" route="W2E" depart="391" departSpeed="10" departLane="best"/>
   <vehicle id="hE2W_35" type="ego_car" route="E2W" depart="403" departSpeed="10" departLane="best"/>
   <vehicle id="hE2W_36" type="ego_car" route="E2W" depart="406" departSpeed="10" departLane="best"/>
   <vehicle id="hS2N_37" type="ego_car" route="S2N" depart="410" departSpeed="10" departLane="best"/>
   <vehicle id="hN2S_38" type="ego_car" route="N2S" depart="422" departSpeed="10" departLane="best"/>
   <vehicle id="hS2N_39" type="ego_car" route="S2N" depart="422" departSpeed="10" departLane="best"/>
   <vehicle id="hN2S_40" type="ego_car" route="N2S" depart="428" departSpeed="10" departLane="best"/>
   <vehicle id="hN2S_41" type="ego_car" route="N2S" depart="435" departSpeed="10" departLane="best"/>
   <vehicle id="E2W_42" type="ego_car" route="E2W" depart="438" departSpeed="10" departLane="best"/>
   <vehicle id="E2W_43" type="ego_car" route="E2W" depart="439" departSpeed="10" departLane="best"/>
   <vehicle id="hW2E_44" type="ego_car" route="W2E" depart="451" departSpeed="10" departLane="best"/>
   <vehicle id="N2S_45" type="ego_car" route="N2S" depart="458" departSpeed="10" departLane="best"/>
   <vehicle id="E2W_46" type="ego_car" route="E2W" depart="462" departSpeed="10" departLane="best"/>
   <vehicle id="W2E_47" type="ego_car" route="W2E" depart="462" departSpeed="10" departLane="best"/>
   <vehicle id="hE2W_48" type="ego_car" route="E2W" depart="466" departSpeed="10" departLane="best"/>
   <vehicle id="hN2S_49" type="ego_car" route="N2S" depart="468" departSpeed="10" departLane="best"/>
   <vehicle id="hS2N_50" type="ego_car" route="S2N" depart="469" departSpeed="10" departLane="best"/>
   <vehicle id="hW2E_51" type="ego_car" route="W2E" depart="469" departSpeed="10" departLane="best"/>
   <vehicle id="N2S_52" type="ego_car" route="N2S" depart="474" departSpeed="10" departLane="best"/>
   <vehicle id="hN2S_53" type="ego_car" route="N2S" depart="485" departSpeed="10" departLane="best"/>
   <vehicle id="hW2E_54" type="ego_car" route="W2E" depart="492" departSpeed="10" departLane="best"/>
   <vehicle id="hE2W_55" type="ego_car" route="E2W" depart="496" departSpeed="10" departLane="best"/>
   <vehicle id="hW2E_56" type="ego_car" route="W2E" depart="496" departSpeed="10" departLane="best"/>
   <vehicle id="W2E_57" type="ego_car" route="W2E" depart="498" departSpeed="10" departLane="best"/>
   <vehicle id="hS2N_58" type="ego_car" route="S2N" depart="500" departSpeed="10" departLane="best"/>
   <vehicle id="W2E_59" type="ego_car" route="W2E" depart="504" departSpeed="10" departLane="best"/>
   <vehicle id="hS2N_60" type="ego_car" route="S2N" depart="506" departSpeed="10" departLane="best"/>
   <vehicle id="hW2E_61" type="ego_car" route="W2E" depart="507" departSpeed="10" departLane="best"/>
   <vehicle id="hN2S_62" type="ego_car" route="N2S" depart="509" departSpeed="10" departLane="best"/>
   <vehicle id="hS2N_63" type="ego_car" route="S2N" depart="511" departSpeed="10" departLane="best"/>
   <vehicle id="hE2W_64" type="ego_car" route="E2W" depart="512" departSpeed="10" departLane="best"/>
   <vehicle id="hE2W_65" type="ego_car" route="E2W" depart="522" departSpeed="10" departLane="best"/>
   <vehicle id="hN2S_66" type="ego_car" route="N2S" depart="528" departSpeed="10" departLane="best"/>
   <vehicle id="W2E_67" type="ego_car" route="W2E" depart="528" departSpeed="10" departLane="best"/>
   <vehicle id="S2N_68" type="ego_car" route="S2N" depart="535" departSpeed="10" departLane="best"/>
   <vehicle id="hS2N_69" type="ego_car" route="S2N" depart="545" departSpeed="10" departLane="best"/>
   <vehicle id="hW2E_70" type="ego_car" route="W2E" depart="548" departSpeed="10" departLane="best"/>
   <vehicle id="S2N_71" type="ego_car" route="S2N" depart="550" departSpeed="10" departLane="best"/>
   <vehicle id="hS2N_72" type="ego_car" route="S2N" depart="553" departSpeed="10" departLane="best"/>
   <vehicle id="hE2W_73" type="ego_car" route="E2W" depart="553" departSpeed="10" departLane="best"/>
   <vehicle id="hS2N_74" type="ego_car" route="S2N" depart="560" departSpeed="10" departLane="best"/>
   <vehicle id="hS2N_75" type="ego_car" route="S2N" depart="560" departSpeed="10" departLane="best"/>
   <vehicle id="hE2W_76" type="ego_car" route="E2W" depart="560" departSpeed="10" departLane="best"/>
   <vehicle id="hS2N_77" type="ego_car" route="S2N" depart="562" departSpeed="10" departLane="best"/>
   <vehicle id="hW2E_78" type="ego_car" route="W2E" depart="565" departSpeed="10" departLane="best"/>
   <vehicle id="hE2W_79" type="ego_car" route="E2W" depart="574" departSpeed="10" departLane="best"/>
   <vehicle id="W2E_80" type="ego_car" route="W2E" depart="574" departSpeed="10" departLane="best"/>
   <vehicle id="hE2W_81" type="ego_car" route="E2W" depart="575" departSpeed="10" departLane="best"/>
   <vehicle id="hN2S_82" type="ego_car" route="N2S" depart="586" departSpeed="10" departLane="best"/>
   <vehicle id="hS2N_83" type="ego_car" route="S2N" depart="594" departSpeed="10" departLane="best"/>
   <vehicle id="hW2E_84" type="ego_car" route="W2E" depart="597" departSpeed="10" departLane="best"/>
   <vehicle id="hN2S_85" type="ego_car" route="N2S" depart="599" departSpeed="10" departLane="best"/>
   <vehicle id="W2E_86" type="ego_car" route="W2E" depart="603" departSpeed="10" departLane="best"/>
   <vehicle id="hE2W_87" type="ego_car" route="E2W" depart="608" departSpeed="10" departLane="best"/>
   <vehicle id="hW2E_88" type="ego_car" route="W2E" depart="617" departSpeed="10" departLane="best"/>
   <vehicle id="N2S_89" type="ego_car" route="N2S" depart="618" departSpeed="10" departLane="best"/>
   <vehicle id="E2W_90" type="ego_car" route="E2W" depart="621" departSpeed="10" departLane="best"/>
   <vehicle id="N2S_91" type="ego_car" route="N2S" depart="623" departSpeed="10" departLane="best"/>
   <vehicle id="hE2W_92" type="ego_car" route="E2W" depart="625" departSpeed="10" departLane="best"/>
   <vehicle id="hW2E_93" type="ego_car" route="W2E" depart="626" departSpeed="10" departLane="best"/>
   <vehicle id="hW2E_94" type="ego_car" route="W2E" depart="626" departSpeed="10" departLane="best"/>
   <vehicle id="S2N_95" type="ego_car" route="S2N" depart="636" departSpeed="10" departLane="best"/>
   <vehicle id="hW2E_96" type="ego_car" route="W2E" depart="639" departSpeed="10" departLane="best"/>
   <vehicle id="hE2W_97" type="ego_car" route="E2W" depart="645" departSpeed="10" departLane="best"/>
   <vehicle id="hN2S_98" type="ego_car" route="N2S" depart="650" departSpeed="10" departLane="best"/>
   <vehicle id="hN2S_99" type="ego_car" route="N2S" depart="653" departSpeed="10" departLane="best"/>
   <vehicle id="hS2N_100" type="ego_car" route="S2N" depart="655" departSpeed="10" departLane="best"/>
   <vehicle id="W2E_101" type="ego_car" route="W2E" depart="664" departSpeed="10" departLane="best"/>
   <vehicle id="hS2N_102" type="ego_car" route="S2N" depart="666" departSpeed="10" departLane="best"/>
   <vehicle id="hS2N_103" type="ego_car" route="S2N" depart="668" departSpeed="10" departLane="best"/>
   <vehicle id="hS2N_104" type="ego_car" route="S2N" depart="673" departSpeed="10" departLane="best"/>
   <vehicle id="hW2E_105" type="ego_car" route="W2E" depart="679" departSpeed="10" departLane="best"/>
   <vehicle id="hN2S_106" type="ego_car" route="N2S" depart="683" departSpeed="10" departLane="best"/>
   <vehicle id="E2W_107" type="ego_car" route="E2W" depart="683" departSpeed="10" departLane="best"/>
   <vehicle id="hE2W_108" type="ego_car" route="E2W" depart="685" departSpeed="10" departLane="best"/>
   <vehicle id="hE2W_109" type="ego_car" route="E2W" depart="687" departSpeed="10" departLane="best"/>
   <vehicle id="hW2E_110" type="ego_car" route="W2E" depart="691" departSpeed="10" departLane="best"/>
   <vehicle id="hE2W_111" type="ego_car" route="E2W" depart="697" departSpeed="10" departLane="best"/>
   <vehicle id="hE2W_112" type="ego_car" route="E2W" depart="705" departSpeed="10" departLane="best"/>
   <vehicle id="hN2S_113" type="ego_car" route="N2S" depart="706" departSpeed="10" departLane="best"/>
   <vehicle id="S2N_114" type="ego_car" route="S2N" depart="706" departSpeed="10" departLane="best"/>
   <vehicle id="hN2S_115" type="ego_car" route="N2S" depart="707" departSpeed="10" departLane="best"/>
   <vehicle id="hS2N_116" type="ego_car" route="S2N" depart="707" departSpeed="10" departLane="best"/>
   <vehicle id="hN2S_117" type="ego_car" route="N2S" depart="708" departSpeed="10" departLane="best"/>
   <vehicle id="hW2E_118" type="ego_car" route="W2E" depart="708" departSpeed="10" departLane="best"/>
   <vehicle id="hN2S_119" type="ego_car" route="N2S" depart="710" departSpeed="10" departLane="best"/>
   <vehicle id="S2N_120" type="ego_car" route="S2N" depart="719" departSpeed="10" departLane="best"/>
   <vehicle id="hN2S_121" type="ego_car" route="N2S" depart="720" departSpeed="10" departLane="best"/>
   <vehicle id="hW2E_122" type="ego_car" route="W2E" depart="730" departSpeed="10" departLane="best"/>
   <vehicle id="hE2W_123" type="ego_car" route="E2W" depart="734" departSpeed="10" departLane="best"/>
   <vehicle id="hW2E_124" type="ego_car" route="W2E" depart="735" departSpeed="10" departLane="best"/>
   <vehicle id="S2N_125" type="ego_car" route="S2N" depart="736" departSpeed="10" departLane="best"/>
   <vehicle id="hN2S_126" type="ego_car" route="N2S" depart="740" departSpeed="10" departLane="best"/>
   <vehicle id="W2E_127" type="ego_car" route="W2E" depart="740" departSpeed="10" departLane="best"/>
   <vehicle id="hN2S_128" type="ego_car" route="N2S" depart="743" departSpeed="10" departLane="best"/>
   <vehicle id="hN2S_129" type="ego_car" route="N2S" depart="752" departSpeed="10" departLane="best"/>
   <vehicle id="hN2S_130" type="ego_car" route="N2S" depart="754" departSpeed="10" departLane="best"/>
   <vehicle id="hW2E_131" type="ego_car" route="W2E" depart="755" departSpeed="10" departLane="best"/>
   <vehicle id="E2W_132" type="ego_car" route="E2W" depart="757" departSpeed="10" departLane="best"/>
   <vehicle id="hW2E_133" type="ego_car" route="W2E" depart="763" departSpeed="10" departLane="best"/>
   <vehicle id="hS2N_134" type="ego_car" route="S2N" depart="764" departSpeed="10" departLane="best"/>
   <vehicle id="N2S_135" type="ego_car" route="N2S" depart="766" departSpeed="10" departLane="best"/>
   <vehicle id="hS2N_136" type="ego_car" route="S2N" depart="767" departSpeed="10" departLane="best"/>
   <vehicle id="E2W_137" type="ego_car" route="E2W" depart="772" departSpeed="10" departLane="best"/>
   <vehicle id="hE2W_138" type="ego_car" route="E2W" depart="772" departSpeed="10" departLane="best"/>
   <vehicle id="hS2N_139" type="ego_car" route="S2N" depart="776" departSpeed="10" departLane="best"/>
   <vehicle id="S2N_140" type="ego_car" route="S2N" depart="779" departSpeed="10" departLane="best"/>
   <vehicle id="hE2W_141" type="ego_car" route="E2W" depart="779" departSpeed="10" departLane="best"/>
   <vehicle id="hW2E_142" type="ego_car" route="W2E" depart="783" departSpeed="10" departLane="best"/>
   <vehicle id="hE2W_143" type="ego_car" route="E2W" depart="786" departSpeed="10" departLane="best"/>
   <vehicle id="hN2S_144" type="ego_car" route="N2S" depart="787" departSpeed="10" departLane="best"/>
   <vehicle id="hN2S_145" type="ego_car" route="N2S" depart="790" departSpeed="10" departLane="best"/>
   <vehicle id="S2N_146" type="ego_car" route="S2N" depart="798" departSpeed="10" departLane="best"/>
   <vehicle id="hW2E_147" type="ego_car" route="W2E" depart="798" departSpeed="10" departLane="best"/>
   <vehicle id="hS2N_148" type="ego_car" route="S2N" depart="800" departSpeed="10" departLane="best"/>
   <vehicle id="N2S_149" type="ego_car" route="N2S" depart="801" departSpeed="10" departLane="best"/>
   <vehicle id="hW2E_150" type="ego_car" route="W2E" depart="806" departSpeed="10" departLane="best"/>
   <vehicle id="hN2S_151" type="ego_car" route="N2S" depart="812" departSpeed="10" departLane="best"/>
   <vehicle id="hS2N_152" type="ego_car" route="S2N" depart="814" departSpeed="10" departLane="best"/>
   <vehicle id="hN2S_153" type="ego_car" route="N2S" depart="820" departSpeed="10" departLane="best"/>
   <vehicle id="hE2W_154" type="ego_car" route="E2W" depart="827" departSpeed="10" departLane="best"/>
   <vehicle id="N2S_155" type="ego_car" route="N2S" depart="829" departSpeed="10" departLane="best"/>
   <vehicle id="S2N_156" type="ego_car" route="S2N" depart="829" departSpeed="10" departLane="best"/>
   <vehicle id="hE2W_157" type="ego_car" route="E2W" depart="831" departSpeed="10" departLane="best"/>
   <vehicle id="hW2E_158" type="ego_car" route="W2E" depart="834" departSpeed="10" departLane="best"/>
   <vehicle id="N2S_159" type="ego_car" route="N2S" depart="837" departSpeed="10" departLane="best"/>
   <vehicle id="N2S_160" type="ego_car" route="N2S" depart="842" departSpeed="10" departLane="best"/>
   <vehicle id="N2S_161" type="ego_car" route="N2S" depart="855" departSpeed="10" departLane="best"/>
   <vehicle id="hS2N_162" type="ego_car" route="S2N" depart="858" departSpeed="10" departLane="best"/>
   <vehicle id="E2W_163" type="ego_car" route="E2W" depart="863" departSpeed="10" departLane="best"/>
   <vehicle id="hN2S_164" type="ego_car" route="N2S" depart="867" departSpeed="10" departLane="best"/>
   <vehicle id="hN2S_165" type="ego_car" route="N2S" depart="873" departSpeed="10" departLane="best"/>
   <vehicle id="W2E_166" type="ego_car" route="W2E" depart="873" departSpeed="10" departLane="best"/>
   <vehicle id="S2N_167" type="ego_car" route="S2N" depart="874" departSpeed="10" departLane="best"/>
   <vehicle id="hE2W_168" type="ego_car" route="E2W" depart="880" departSpeed="10" departLane="best"/>
   <vehicle id="W2E_169" type="ego_car" route="W2E" depart="880" departSpeed="10" departLane="best"/>
   <vehicle id="N2S_170" type="ego_car" route="N2S" depart="882" departSpeed="10" departLane="best"/>
   <vehicle id="hE2W_171" type="ego_car" route="E2W" depart="887" departSpeed="10" departLane="best"/>
   <vehicle id="hE2W_172" type="ego_car" route="E2W" depart="899" departSpeed="10" departLane="best"/>
   <vehicle id="hW2E_173" type="ego_car" route="W2E" depart="899" departSpeed="10" departLane="best"/>
   <vehicle id="hE2W_174" type="ego_car" route="E2W" depart="900" departSpeed="10" departLane="best"/>
   <vehicle id="hS2N_175" type="ego_car" route="S2N" depart="903" departSpeed="10" departLane="best"/>
   <vehicle id="W2E_176" type="ego_car" route="W2E" depart="908" departSpeed="10" departLane="best"/>
   <vehicle id="N2S_177" type="ego_car" route="N2S" depart="910" departSpeed="10" departLane="best"/>
   <vehicle id="hW2E_178" type="ego_car" route="W2E" depart="912" departSpeed="10" departLane="best"/>
   <vehicle id="hW2E_179" type="ego_car" route="W2E" depart="915" departSpeed="10" departLane="best"/>
   <vehicle id="hE2W_180" type="ego_car" route="E2W" depart="916" departSpeed="10" departLane="best"/>
   <vehicle id="hW2E_181" type="ego_car" route="W2E" depart="916" departSpeed="10" departLane="best"/>
   <vehicle id="hW2E_182" type="ego_car" route="W2E" depart="926" departSpeed="10" departLane="best"/>
   <vehicle id="hN2S_183" type="ego_car" route="N2S" depart="927" departSpeed="10" departLane="best"/>
   <vehicle id="E2W_184" type="ego_car" route="E2W" depart="933" departSpeed="10" departLane="best"/>
   <vehicle id="hS2N_185" type="ego_car" route="S2N" depart="934" departSpeed="10" departLane="best"/>
   <vehicle id="hW2E_186" type="ego_car" route="W2E" depart="951" departSpeed="10" departLane="best"/>
   <vehicle id="hW2E_187" type="ego_car" route="W2E" depart="953" departSpeed="10" departLane="best"/>
   <vehicle id="E2W_188" type="ego_car" route="E2W" depart="954" departSpeed="10" departLane="best"/>
   <vehicle id="S2N_189" type="ego_car" route="S2N" depart="955" departSpeed="10" departLane="best"/>
   <vehicle id="hW2E_190" type="ego_car" route="W2E" depart="955" departSpeed="10" departLane="best"/>
   <vehicle id="hN2S_191" type="ego_car" route="N2S" depart="957" departSpeed="10" departLane="best"/>
   <vehicle id="hS2N_192" type="ego_car" route="S2N" depart="961" departSpeed="10" departLane="best"/>
   <vehicle id="E2W_193" type="ego_car" route="E2W" depart="961" departSpeed="10" departLane="best"/>
   <vehicle id="hN2S_194" type="ego_car" route="N2S" depart="967" departSpeed="10" departLane="best"/>
   <vehicle id="hS2N_195" type="ego_car" route="S2N" depart="967" departSpeed="10" departLane="best"/>
   <vehicle id="hS2N_196" type="ego_car" route="S2N" depart="969" departSpeed="10" departLane="best"/>
   <vehicle id="hW2E_197" type="ego_car" route="W2E" depart="969" departSpeed="10" departLane="best"/>
   <vehicle id="W2E_198" type="ego_car" route="W2E" depart="975" departSpeed="10" departLane="best"/>
   <vehicle id="hE2W_199" type="ego_car" route="E2W" depart="985" departSpeed="10" departLane="best"/>
   <vehicle id="hE2W_200" type="ego_car" route="E2W" depart="985" departSpeed="10" departLane="best"/>
   <vehicle id="hE2W_201" type="ego_car" route="E2W" depart="985" departSpeed="10" departLane="best"/>
   <vehicle id="hS2N_202" type="ego_car" route="S2N" depart="998" departSpeed="10" departLane="best"/>
   <vehicle id="hS2N_203" type="ego_car" route="S2N" depart="1006" departSpeed="10" departLane="best"/>
   <vehicle id="E2W_204" type="ego_car" route="E2W" depart="1010" departSpeed="10" departLane="best"/>
   <vehicle id="hS2N_205" type="ego_car" route="S2N" depart="1011" departSpeed="10" departLane="best"/>
   <vehicle id="N2S_206" type="ego_car" route="N2S" depart="1012" departSpeed="10" departLane="best"/>
   <vehicle id="hE2W_207" type="ego_car" route="E2W" depart="1012" departSpeed="10" departLane="best"/>
   <vehicle id="N2S_208" type="ego_car" route="N2S" depart="1013" departSpeed="10" departLane="best"/>
   <vehicle id="hN2S_209" type="ego_car" route="N2S" depart="1020" departSpeed="10" departLane="best"/>
   <vehicle id="hN2S_210" type="ego_car" route="N2S" depart="1022" departSpeed="10" departLane="best"/>
   <vehicle id="hE2W_211" type="ego_car" route="E2W" depart="1028" departSpeed="10" departLane="best"/>
   <vehicle id="hW2E_212" type="ego_car" route="W2E" depart="1028" departSpeed="10" departLane="best"/>
   <vehicle id="hN2S_213" type="ego_car" route="N2S" depart="1037" departSpeed="10" departLane="best"/>
   <vehicle id="hS2N_214" type="ego_car" route="S2N" depart="1062" departSpeed="10" departLane="best"/>
   <vehicle id="hS2N_215" type="ego_car" route="S2N" depart="1063" departSpeed="10" departLane="best"/>
   <vehicle id="hE2W_216" type="ego_car" route="E2W" depart="1063" departSpeed="10" departLane="best"/>
   <vehicle id="hE2W_217" type="ego_car" route="E2W" depart="1064" departSpeed="10" departLane="best"/>
   <vehicle id="hN2S_218" type="ego_car" route="N2S" depart="1073" departSpeed="10" departLane="best"/>
   <vehicle id="E2W_219" type="ego_car" route="E2W" depart="1078" departSpeed="10" departLane="best"/>
   <vehicle id="hE2W_220" type="ego_car" route="E2W" depart="1085" departSpeed="10" departLane="best"/>
   <vehicle id="hN2S_221" type="ego_car" route="N2S" depart="1086" departSpeed="10" departLane="best"/>
   <vehicle id="hS2N_222" type="ego_car" route="S2N" depart="1088" departSpeed="10" departLane="best"/>
   <vehicle id="hN2S_223" type="ego_car" route="N2S" depart="1090" departSpeed="10" departLane="best"/>
   <vehicle id="hE2W_224" type="ego_car" route="E2W" depart="1093" departSpeed="10" departLane="best"/>
   <vehicle id="W2E_225" type="ego_car" route="W2E" depart="1095" departSpeed="10" departLane="best"/>
   <vehicle id="hE2W_226" type="ego_car" route="E2W" depart="1099" departSpeed="10" departLane="best"/>
   <vehicle id="hS2N_227" type="ego_car" route="S2N" depart="1100" departSpeed="10" departLane="best"/>
   <vehicle id="hW2E_228" type="ego_car" route="W2E" depart="1106" departSpeed="10" departLane="best"/>
   <vehicle id="W2E_229" type="ego_car" route="W2E" depart="1108" departSpeed="10" departLane="best"/>
   <vehicle id="hN2S_230" type="ego_car" route="N2S" depart="1109" departSpeed="10" departLane="best"/>
   <vehicle id="S2N_231" type="ego_car" route="S2N" depart="1109" departSpeed="10" departLane="best"/>
   <vehicle id="S2N_232" type="ego_car" route="S2N" depart="1114" departSpeed="10" departLane="best"/>
   <vehicle id="hS2N_233" type="ego_car" route="S2N" depart="1114" departSpeed="10" departLane="best"/>
   <vehicle id="hE2W_234" type="ego_car" route="E2W" depart="1117" departSpeed="10" departLane="best"/>
   <vehicle id="E2W_235" type="ego_car" route="E2W" depart="1125" departSpeed="10" departLane="best"/>
   <vehicle id="S2N_236" type="ego_car" route="S2N" depart="1127" departSpeed="10" departLane="best"/>
   <vehicle id="hS2N_237" type="ego_car" route="S2N" depart="1129" departSpeed="10" departLane="best"/>
   <vehicle id="E2W_238" type="ego_car" route="E2W" depart="1133" departSpeed="10" departLane="best"/>
   <vehicle id="hN2S_239" type="ego_car" route="N2S" depart="1156" departSpeed="10" departLane="best"/>
   <vehicle id="hN2S_240" type="ego_car" route="N2S" depart="1157" departSpeed="10" departLane="best"/>
   <vehicle id="hS2N_241" type="ego_car" route="S2N" depart="1157" departSpeed="10" departLane="best"/>
   <vehicle id="hS2N_242" type="ego_car" route="S2N" depart="1159" departSpeed="10" departLane="best"/>
   <vehicle id="hW2E_243" type="ego_car" route="W2E" depart="1162" departSpeed="10" departLane="best"/>
   <vehicle id="hW2E_244" type="ego_car" route="W2E" depart="1166" departSpeed="10" departLane="best"/>
   <vehicle id="E2W_245" type="ego_car" route="E2W" depart="1170" departSpeed="10" departLane="best"/>
   <vehicle id="hN2S_246" type="ego_car" route="N2S" depart="1180" departSpeed="10" departLane="best"/>
   <vehicle id="W2E_247" type="ego_car" route="W2E" depart="1185" departSpeed="10" departLane="best"/>
   <vehicle id="hS2N_248" type="ego_car" route="S2N" depart="1195" departSpeed="10" departLane="best"/>
   <vehicle id="hS2N_249" type="ego_car" route="S2N" depart="1197" departSpeed="10" departLane="best"/>
   <vehicle id="hE2W_250" type="ego_car" route="E2W" depart="1197" departSpeed="10" departLane="best"/>
   <vehicle id="hW2E_251" type="ego_car" route="W2E" depart="1205" departSpeed="10" departLane="best"/>
   <vehicle id="hE2W_252" type="ego_car" route="E2W" depart="1209" departSpeed="10" departLane="best"/>
   <vehicle id="W2E_253" type="ego_car" route="W2E" depart="1212" departSpeed="10" departLane="best"/>
   <vehicle id="hE2W_254" type="ego_car" route="E2W" depart="1213" departSpeed="10" departLane="best"/>
   <vehicle id="hE2W_255" type="ego_car" route="E2W" depart="1217" departSpeed="10" departLane="best"/>
   <vehicle id="hN2S_256" type="ego_car" route="N2S" depart="1219" departSpeed="10" departLane="best"/>
   <vehicle id="N2S_257" type="ego_car" route="N2S" depart="1222" departSpeed="10" departLane="best"/>
   <vehicle id="N2S_258" type="ego_car" route="N2S" depart="1226" departSpeed="10" departLane="best"/>
   <vehicle id="hW2E_259" type="ego_car" route="W2E" depart="1228" departSpeed="10" departLane="best"/>
   <vehicle id="hE2W_260" type="ego_car" route="E2W" depart="1228" departSpeed="10" departLane="best"/>
   <vehicle id="hW2E_261" type="ego_car" route="W2E" depart="1236" departSpeed="10" departLane="best"/>
   <vehicle id="hS2N_262" type="ego_car" route="S2N" depart="1246" departSpeed="10" departLane="best"/>
   <vehicle id="hN2S_263" type="ego_car" route="N2S" depart="1248" departSpeed="10" departLane="best"/>
   <vehicle id="S2N_264" type="ego_car" route="S2N" depart="1261" departSpeed="10" departLane="best"/>
   <vehicle id="hS2N_265" type="ego_car" route="S2N" depart="1265" departSpeed="10" departLane="best"/>
   <vehicle id="hW2E_266" type="ego_car" route="W2E" depart="1269" departSpeed="10" departLane="best"/>
   <vehicle id="hE2W_267" type="ego_car" route="E2W" depart="1271" departSpeed="10" departLane="best"/>
   <vehicle id="hN2S_268" type="ego_car" route="N2S" depart="1275" departSpeed="10" departLane="best"/>
   <vehicle id="hS2N_269" type="ego_car" route="S2N" depart="1276" departSpeed="10" departLane="best"/>
   <vehicle id="E2W_270" type="ego_car" route="E2W" depart="1280" departSpeed="10" departLane="best"/>
   <vehicle id="hE2W_271" type="ego_car" route="E2W" depart="1285" departSpeed="10" departLane="best"/>
   <vehicle id="hW2E_272" type="ego_car" route="W2E" depart="1289" departSpeed="10" departLane="best"/>
   <vehicle id="hN2S_273" type="ego_car" route="N2S" depart="1291" departSpeed="10" departLane="best"/>
   <vehicle id="hE2W_274" type="ego_car" route="E2W" depart="1293" departSpeed="10" departLane="best"/>
   <vehicle id="S2N_275" type="ego_car" route="S2N" depart="1297" departSpeed="10" departLane="best"/>
   <vehicle id="S2N_276" type="ego_car" route="S2N" depart="1303" departSpeed="10" departLane="best"/>
   <vehicle id="S2N_277" type="ego_car" route="S2N" depart="1327" departSpeed="10" departLane="best"/>
   <vehicle id="hN2S_278" type="ego_car" route="N2S" depart="1336" departSpeed="10" departLane="best"/>
   <vehicle id="hN2S_279" type="ego_car" route="N2S" depart="1346" departSpeed="10" departLane="best"/>
   <vehicle id="hW2E_280" type="ego_car" route="W2E" depart="1355" departSpeed="10" departLane="best"/>
   <vehicle id="hW2E_281" type="ego_car" route="W2E" depart="1369" departSpeed="10" departLane="best"/>
   <vehicle id="E2W_282" type="ego_car" route="E2W" depart="1369" departSpeed="10" departLane="best"/>
   <vehicle id="hN2S_283" type="ego_car" route="N2S" depart="1374" departSpeed="10" departLane="best"/>
   <vehicle id="hE2W_284" type="ego_car" route="E2W" depart="1378" departSpeed="10" departLane="best"/>
   <vehicle id="hE2W_285" type="ego_car" route="E2W" depart="1379" departSpeed="10" departLane="best"/>
   <vehicle id="hE2W_286" type="ego_car" route="E2W" depart="1383" departSpeed="10" departLane="best"/>
   <vehicle id="hS2N_287" type="ego_car" route="S2N" depart="1385" departSpeed="10" departLane="best"/>
   <vehicle id="E2W_288" type="ego_car" route="E2W" depart="1388" departSpeed="10" departLane="best"/>