<routes>

        <vType id = 'ego_car' vclass="evehicle" emissionClass="Energy" tau="1.5" accel="3.0" decel="3.0" color="#00FFFF" sigma="0.2" length="4.90" minGap="1.0" maxSpeed="20" carFollowing="IDM" guiShape="passenger"/>

        <route id="N2S" edges="NS -SN"/>
        <route id="S2N" edges="SN -NS"/>
        <route id="W2E" edges="WE -EW"/>
        <route id="E2W" edges="EW -WE"/>
   <vehicle id="hS2N_1" type="ego_car" route="S2N" depart="44" departSpeed="10" departLane="best"/>
   <vehicle id="W2E_2" type="ego_car" route="W2E" depart="57" departSpeed="10" departLane="best"/>
   <vehicle id="hN2S_3" type="ego_car" route="N2S" depart="104" departSpeed="10" departLane="best"/>
   <vehicle id="E2W_4" type="ego_car" route="E2W" depart="151" departSpeed="10" departLane="best"/>
   <vehicle id="hS2N_5" type="ego_car" route="S2N" depart="151" departSpeed="10" departLane="best"/>
   <vehicle id="hE2W_6" type="ego_car" route="E2W" depart="151" departSpeed="10" departLane="best"/>
   <vehicle id="hE2W_7" type="ego_car" route="E2W" depart="155" departSpeed="10" departLane="best"/>
   <vehicle id="S2N_8" type="ego_car" route="S2N" depart="165" departSpeed="10" departLane="best"/>
   <vehicle id="hE2W_9" type="ego_car" route="E2W" depart="191" departSpeed="10" departLane="best"/>
   <vehicle id="W2E_10" type="ego_car" route="W2E" depart="192" departSpeed="10" departLane="best"/>
   <vehicle id="S2N_11" type="ego_car" route="S2N" depart="193" departSpeed="10" departLane="best"/>
   <vehicle id="hS2N_12" type="ego_car" route="S2N" depart="196" departSpeed="10" departLane="best"/>
   <vehicle id="S2N_13" type="ego_car" route="S2N" depart="211" departSpeed="10" departLane="best"/>
   <vehicle id="S2N_14" type="ego_car" route="S2N" depart="220" departSpeed="10" departLane="best"/>
   <vehicle id="hE2W_15" type="ego_car" route="E2W" depart="233" departSpeed="10" departLane="best"/>
   <vehicle id="hS2N_16" type="ego_car" route="S2N" depart="246" departSpeed="10" departLane="best"/>
   <vehicle id="W2E_17" type="ego_car" route="W2E" depart="255" departSpeed="10" departLane="best"/>
   <vehicle id="hE2W_18" type="ego_car" route="E2W" depart="269" departSpeed="10" departLane="best"/>
   <vehicle id="hN2S_19" type="ego_car" route="N2S" depart="285" departSpeed="10" departLane="best"/>
   <vehicle id="S2N_20" type="ego_car" route="S2N" depart="295" departSpeed="10" departLane="best"/>
   <vehicle id="hE2W_21" type="ego_car" route="E2W" depart="296" departSpeed="10" departLane="best"/>
   <vehicle id="hS2N_22" type="ego_car" route="S2N" depart="306" departSpeed="10" departLane="best"/>
   <vehicle id="hE2W_23" type="ego_car" route="E2W" depart="311" departSpeed="10" departLane="best"/>
   <vehicle id="S2N_24" type="ego_car" route="S2N" depart="311" departSpeed="10" departLane="best"/>
   <vehicle id="hE2W_25" type="ego_car" route="E2W" depart="312" departSpeed="10" departLane="best"/>
   <vehicle id="hS2N_26" type="ego_car" route="S2N" depart="313" departSpeed="10" departLane="best"/>
   <vehicle id="N2S_27" type="ego_car" route="N2S" depart="314" departSpeed="10" departLane="best"/>
   <vehicle id="S2N_28" type="ego_car" route="S2N" depart="322" departSpeed="10" departLane="best"/>
   <vehicle id="hS2N_29" type="ego_car" route="S2N" depart="327" departSpeed="10" departLane="best"/>
   <vehicle id="hN2S_30" type="ego_car" route="N2S" depart="339" departSpeed="10" departLane="best"/>
   <vehicle id="hE2W_31" type="ego_car" route="E2W" depart="343" departSpeed="10" departLane="best"/>
   <vehicle id="hE2W_32" type="ego_car" route="E2W" depart="344" departSpeed="10" departLane="best"/>
   <vehicle id="hS2N_33" type="ego_car" route="S2N" depart="354" departSpeed="10" departLane="best"/>
   <vehicle id="hW2E_34" type="ego_car" route="W2E" depart="360" departSpeed="10" departLane="best"/>
   <vehicle id="hW2E_35" type="ego_car" route="W2E" depart="364" departSpeed="10" departLane="best"/>
   <vehicle id="hE2W_36" type="ego_car" route="E2W" depart="364" departSpeed="10" departLane="best"/>
   <vehicle id="hW2E_37" type="ego_car" route="W2E" depart="365" departSpeed="10" departLane="best"/>
   <vehicle id="hE2W_38" type="ego_car" route="E2W" depart="366" departSpeed="10" departLane="best"/>
   <vehicle id="hS2N_39" type="ego_car" route="S2N" depart="370" departSpeed="10" departLane="best"/>
   <vehicle id="hS2N_40" type="ego_car" route="S2N" depart="374" departSpeed="10" departLane="best"/>
   <vehicle id="hS2N_41" type="ego_car" route="S2N" depart="379" departSpeed="10" departLane="best"/>
   <vehicle id="W2E_42" type="ego_car" route="W2E" depart="395" departSpeed="10" departLane="best"/>
   <vehicle id="S2N_43" type="ego_car" route="S2N" depart="400" departSpeed="10" departLane="best"/>
   <vehicle id="hE2W_44" type="ego_car" route="E2W" depart="421" departSpeed="10" departLane="best"/>
   <vehicle id="E2W_45" type="ego_car" route="E2W" depart="422" departSpeed="10" departLane="best"/>
   <vehicle id="N2S_46" type="ego_car" route="N2S" depart="434" departSpeed="10" departLane="best"/>
   <vehicle id="W2E_47" type="ego_car" route="W2E" depart="437" departSpeed="10" departLane="best"/>
   <vehicle id="hS2N_48" type="ego_car" route="S2N" depart="445" departSpeed="10" departLane="best"/>
   <vehicle id="hS2N_49" type="ego_car" route="S2N" depart="449" departSpeed="10" departLane="best"/>
   <vehicle id="hN2S_50" type="ego_car" route="N2S" depart="451" departSpeed="10" departLane="best"/>
   <vehicle id="hS2N_51" type="ego_car" route="S2N" depart="455" departSpeed="10" departLane="best"/>
   <vehicle id="E2W_52" type="ego_car" route="E2W" depart="456" departSpeed="10" departLane="best"/>
   <vehicle id="hW2E_53" type="ego_car" route="W2E" depart="460" departSpeed="10" departLane="best"/>
   <vehicle id="hS2N_54" type="ego_car" route="S2N" depart="462" departSpeed="10" departLane="best"/>
   <vehicle id="hE2W_55" type="ego_car" route="E2W" depart="474" departSpeed="10" departLane="best"/>
   <vehicle id="hS2N_56" type="ego_car" route="S2N" depart="479" departSpeed="10" departLane="best"/>
   <vehicle id="W2E_57" type="ego_car" route="W2E" depart="487" departSpeed="10" departLane="best"/>
   <vehicle id="hE2W_58" type="ego_car" route="E2W" depart="498" departSpeed="10" departLane="best"/>
   <vehicle id="S2N_59" type="ego_car" route="S2N" depart="500" departSpeed="10" departLane="best"/>
   <vehicle id="hN2S_60" type="ego_car" route="N2S" depart="504" departSpeed="10" departLane="best"/>
   <vehicle id="hW2E_61" type="ego_car" route="W2E" depart="504" departSpeed="10" departLane="best"/>
   <vehicle id="hN2S_62" type="ego_car" route="N2S" depart="516" departSpeed="10" departLane="best"/>
   <vehicle id="hN2S_63" type="ego_car" route="N2S" depart="520" departSpeed="10" departLane="best"/>
   <vehicle id="hE2W_64" type="ego_car" route="E2W" depart="524" departSpeed="10" departLane="best"/>
   <vehicle id="hE2W_65" type="ego_car" route="E2W" depart="529" departSpeed="10" departLane="best"/>
   <vehicle id="hN2S_66" type="ego_car" route="N2S" depart="550" departSpeed="10" departLane="best"/>
   <vehicle id="E2W_67" type="ego_car" route="E2W" depart="550" departSpeed="10" departLane="best"/>
   <vehicle id="W2E_68" type="ego_car" route="W2E" depart="562" departSpeed="10" departLane="best"/>
   <vehicle id="hN2S_69" type="ego_car" route="N2S" depart="564" departSpeed="10" departLane="best"/>
   <vehicle id="hE2W_70" type="ego_car" route="E2W" depart="567" departSpeed="10" departLane="best"/>
   <vehicle id="W2E_71" type="ego_car" route="W2E" depart="569" departSpeed="10" departLane="best"/>
   <vehicle id="hS2N_72" type="ego_car" route="S2N" depart="572" departSpeed="10" departLane="best"/>
   <vehicle id="hE2W_73" type="ego_car" route="E2W" depart="575" departSpeed="10" departLane="best"/>
   <vehicle id="hN2S_74" type="ego_car" route="N2S" depart="586" departSpeed="10" departLane="best"/>
   <vehicle id="hS2N_75" type="ego_car" route="S2N" depart="592" departSpeed="10" departLane="best"/>
   <vehicle id="hE2W_76" type="ego_car" route="E2W" depart="596" departSpeed="10" departLane="best"/>
   <vehicle id="hN2S_77" type="ego_car" route="N2S" depart="601" departSpeed="10" departLane="best"/>
   <vehicle id="hE2W_78" type="ego_car" route="E2W" depart="603" departSpeed="10" departLane="best"/>
   <vehicle id="hE2W_79" type="ego_car" route="E2W" depart="606" departSpeed="10" departLane="best"/>
   <vehicle id="W2E_80" type="ego_car" route="W2E" depart="610" departSpeed="10" departLane="best"/>
   <vehicle id="hS2N_81" type="ego_car" route="S2N" depart="617" departSpeed="10" departLane="best"/>
   <vehicle id="hN2S_82" type="ego_car" route="N2S" depart="622" departSpeed="10" departLane="best"/>
   <vehicle id="hS2N_83" type="ego_car" route="S2N" depart="634" departSpeed="10" departLane="best"/>
   <vehicle id="hE2W_84" type="ego_car" route="E2W" depart="635" departSpeed="10" departLane="best"/>
   <vehicle id="hW2E_85" type="ego_car" route="W2E" depart="641" departSpeed="10" departLane="best"/>
   <vehicle id="N2S_86" type="ego_car" route="N2S" depart="646" departSpeed="10" departLane="best"/>
   <vehicle id="hE2W_87" type="ego_car" route="E2W" depart="646" departSpeed="10" departLane="best"/>
   <vehicle id="hN2S_88" type="ego_car" route="N2S" depart="649" departSpeed="10" departLane="best"/>
   <vehicle id="E2W_89" type="ego_car" route="E2W" depart="649" departSpeed="10" departLane="best"/>
   <vehicle id="N2S_90" type="ego_car" route="N2S" depart="653" departSpeed="10" departLane="best"/>
   <vehicle id="S2N_91" type="ego_car" route="S2N" depart="655" departSpeed="10" departLane="best"/>
   <vehicle id="hW2E_92" type="ego_car" route="W2E" depart="657" departSpeed="10" departLane="best"/>
   <vehicle id="hE2W_93" type="ego_car" route="E2W" depart="658" departSpeed="10" departLane="best"/>
   <vehicle id="hS2N_94" type="ego_car" route="S2N" depart="665" departSpeed="10" departLane="best"/>
   <vehicle id="S2N_95" type="ego_car" route="S2N" depart="666" departSpeed="10" departLane="best"/>
   <vehicle id="hE2W_96" type="ego_car" route="E2W" depart="668" departSpeed="10" departLane="best"/>
   <vehicle id="hS2N_97" type="ego_car" route="S2N" depart="669" departSpeed="10" departLane="best"/>
   <vehicle id="hE2W_98" type="ego_car" route="E2W" depart="671" departSpeed="10" departLane="best"/>
   <vehicle id="hS2N_99" type="ego_car" route="S2N" depart="672" departSpeed="10" departLane="best"/>
   <vehicle id="hS2N_100" type="ego_car" route="S2N" depart="675" departSpeed="10" departLane="best"/>
   <vehicle id="S2N_101" type="ego_car" route="S2N" depart="676" departSpeed="10" departLane="best"/>
   <vehicle id="hS2N_102" type="ego_car" route="S2N" depart="684" departSpeed="10" departLane="best"/>
   <vehicle id="hN2S_103" type="ego_car" route="N2S" depart="687" departSpeed="10" departLane="best"/>
   <vehicle id="hN2S_104" type="ego_car" route="N2S" depart="689" departSpeed="10" departLane="best"/>
   <vehicle id="hE2W_105" type="ego_car" route="E2W" depart="693" departSpeed="10" departLane="best"/>
   <vehicle id="hS2N_106" type="ego_car" route="S2N" depart="696" departSpeed="10" departLane="best"/>
   <vehicle id="N2S_107" type="ego_car" route="N2S" depart="702" departSpeed="10" departLane="best"/>
   <vehicle id="hN2S_108" type="ego_car" route="N2S" depart="702" departSpeed="10" departLane="best"/>
   <vehicle id="hE2W_109" type="ego_car" route="E2W" depart="715" departSpeed="10" departLane="best"/>
   <vehicle id="hE2W_110" type="ego_car" route="E2W" depart="717" departSpeed="10" departLane="best"/>
   <vehicle id="hE2W_111" type="ego_car" route="E2W" depart="718" departSpeed="10" departLane="best"/>
   <vehicle id="hE2W_112" type="ego_car" route="E2W" depart="720" departSpeed="10" departLane="best"/>
   <vehicle id="hE2W_113" type="ego_car" route="E2W" depart="722" departSpeed="10" departLane="best"/>
   <vehicle id="N2S_114" type="ego_car" route="N2S" depart="725" departSpeed="10" departLane="best"/>
   <vehicle id="hW2E_115" type="ego_car" route="W2E" depart="726" departSpeed="10" departLane="best"/>
   <vehicle id="hS2N_116" type="ego_car" route="S2N" depart="730" departSpeed="10" departLane="best"/>
   <vehicle id="hW2E_117" type="ego_car" route="W2E" depart="734" departSpeed="10" departLane="best"/>
   <vehicle id="hW2E_118" type="ego_car" route="W2E" depart="737" departSpeed="10" departLane="best"/>
   <vehicle id="hN2S_119" type="ego_car" route="N2S" depart="738" departSpeed="10" departLane="best"/>
   <vehicle id="S2N_120" type="ego_car" route="S2N" depart="744" departSpeed="10" departLane="best"/>
   <vehicle id="hS2N_121" type="ego_car" route="S2N" depart="747" departSpeed="10" departLane="best"/>
   <vehicle id="hS2N_122" type="ego_car" route="S2N" depart="753" departSpeed="10" departLane="best"/>
   <vehicle id="hE2W_123" type="ego_car" route="E2W" depart="758" departSpeed="10" departLane="best"/>
   <vehicle id="hS2N_124" type="ego_car" route="S2N" depart="762" departSpeed="10" departLane="best"/>
   <vehicle id="N2S_125" type="ego_car" route="N2S" depart="763" departSpeed="10" departLane="best"/>
   <vehicle id="hE2W_126" type="ego_car" route="E2W" depart="766" departSpeed="10" departLane="best"/>
   <vehicle id="N2S_127" type="ego_car" route="N2S" depart="768" departSpeed="10" departLane="best"/>
   <vehicle id="hN2S_128" type="ego_car" route="N2S" depart="769" departSpeed="10" departLane="best"/>
   <vehicle id="hE2W_129" type="ego_car" route="E2W" depart="785" departSpeed="10" departLane="best"/>
   <vehicle id="hW2E_130" type="ego_car" route="W2E" depart="786" departSpeed="10" departLane="best"/>
   <vehicle id="hS2N_131" type="ego_car" route="S2N" depart="786" departSpeed="10" departLane="best"/>
   <vehicle id="W2E_132" type="ego_car" route="W2E" depart="790" departSpeed="10" departLane="best"/>
   <vehicle id="hN2S_133" type="ego_car" route="N2S" depart="793" departSpeed="10" departLane="best"/>
   <vehicle id="hN2S_134" type="ego_car" route="N2S" depart="794" departSpeed="10" departLane="best"/>
   <vehicle id="S2N_135" type="ego_car" route="S2N" depart="794" departSpeed="10" departLane="best"/>
   <vehicle id="hS2N_136" type="ego_car" route="S2N" depart="795" departSpeed="10" departLane="best"/>
   <vehicle id="E2W_137" type="ego_car" route="E2W" depart="802" departSpeed="10" departLane="best"/>
   <vehicle id="hE2W_138" type="ego_car" route="E2W" depart="805" departSpeed="10" departLane="best"/>
   <vehicle id="hW2E_139" type="ego_car" route="W2E" depart="827" departSpeed="10" departLane="best"/>
   <vehicle id="N2S_140" type="ego_car" route="N2S" depart="847" departSpeed="10" departLane="best"/>
   <vehicle id="hN2S_141" type="ego_car" route="N2S" depart="848" departSpeed="10" departLane="best"/>
   <vehicle id="hN2S_142" type="ego_car" route="N2S" depart="855" departSpeed="10" departLane="best"/>
   <vehicle id="hN2S_143" type="ego_car" route="N2S" depart="856" departSpeed="10" departLane="best"/>
   <vehicle id="hS2N_144" type="ego_car" route="S2N" depart="881" departSpeed="10" departLane="best"/>
   <vehicle id="hN2S_145" type="ego_car" route="N2S" depart="886" departSpeed="10" departLane="best"/>
   <vehicle id="W2E_146" type="ego_car" route="W2E" depart="892" departSpeed="10" departLane="best"/>
   <vehicle id="hN2S_147" type="ego_car" route="N2S" depart="893" departSpeed="10" departLane="best"/>
   <vehicle id="hS2N_148" type="ego_car" route="S2N" depart="898" departSpeed="10" departLane="best"/>
   <vehicle id="W2E_149" type="ego_car" route="W2E" depart="901" departSpeed="10" departLane="best"/>
   <vehicle id="hN2S_150" type="ego_car" route="N2S" depart="904" departSpeed="10" departLane="best"/>
   <vehicle id="hW2E_151" type="ego_car" route="W2E" depart="908" departSpeed="10" departLane="best"/>
   <vehicle id="hS2N_152" type="ego_car" route="S2N" depart="911" departSpeed="10" departLane="best"/>
   <vehicle id="hN2S_153" type="ego_car" route="N2S" depart="918" departSpeed="10" departLane="best"/>
   <vehicle id="hS2N_154" type="ego_car" route="S2N" depart="918" departSpeed="10" departLane="best"/>
   <vehicle id="S2N_155" type="ego_car" route="S2N" depart="923" departSpeed="10" departLane="best"/>
   <vehicle id="S2N_156" type="ego_car" route="S2N" depart="923" departSpeed="10" departLane="best"/>
   <vehicle id="hN2S_157" type="ego_car" route="N2S" depart="928" departSpeed="10" departLane="best"/>
   <vehicle id="hS2N_158" type="ego_car" route="S2N" depart="939" departSpeed="10" departLane="best"/>
   <vehicle id="N2S_159" type="ego_car" route="N2S" depart="940" departSpeed="10" departLane="best"/>
   <vehicle id="S2N_160" type="ego_car" route="S2N" depart="941" departSpeed="10" departLane="best"/>
   <vehicle id="N2S_161" type="ego_car" route="N2S" depart="944" departSpeed="10" departLane="best"/>
   <vehicle id="hE2W_162" type="ego_car" route="E2W" depart="956" departSpeed="10" departLane="best"/>
   <vehicle id="N2S_163" type="ego_car" route="N2S" depart="957" departSpeed="10" departLane="best"/>
   <vehicle id="hE2W_164" type="ego_car" route="E2W" depart="962" departSpeed="10" departLane="best"/>
   <vehicle id="hE2W_165" type="ego_car" route="E2W" depart="967" departSpeed="10" departLane="best"/>
   <vehicle id="W2E_166" type="ego_car" route="W2E" depart="977" departSpeed="10" departLane="best"/>
   <vehicle id="S2N_167" type="ego_car" route="S2N" depart="978" departSpeed="10" departLane="best"/>
   <vehicle id="hE2W_168" type="ego_car" route="E2W" depart="984" departSpeed="10" departLane="best"/>
   <vehicle id="E2W_169" type="ego_car" route="E2W" depart="987" departSpeed="10" departLane="best"/>
   <vehicle id="E2W_170" type="ego_car" route="E2W" depart="989" departSpeed="10" departLane="best"/>
   <vehicle id="hE2W_171" type="ego_car" route="E2W" depart="990" departSpeed="10" departLane="best"/>
   <vehicle id="hN2S_172" type="ego_car" route="N2S" depart="998" departSpeed="10" departLane="best"/>
   <vehicle id="hE2W_173" type="ego_car" route="E2W" depart="1004" departSpeed="10" departLane="best"/>
   <vehicle id="hN2S_174" type="ego_car" route="N2S" depart="1006" departSpeed="10" departLane="best"/>
   <vehicle id="hN2S_175" type="ego_car" route="N2S" depart="1007" departSpeed="10" departLane="best"/>
   <vehicle id="N2S_176" type="ego_car" route="N2S" depart="1009" departSpeed="10" departLane="best"/>
   <vehicle id="S2N_177" type="ego_car" route="S2N" depart="1016" departSpeed="10" departLane="best"/>
   <vehicle id="hW2E_178" type="ego_car" route="W2E" depart="1020" departSpeed="10" departLane="best"/>
   <vehicle id="hN2S_179" type="ego_car" route="N2S" depart="1020" departSpeed="10" departLane="best"/>
   <vehicle id="hS2N_180" type="ego_car" route="S2N" depart="1020" departSpeed="10" departLane="best"/>
   <vehicle id="hN2S_181" type="ego_car" route="N2S" depart="1024" departSpeed="10" departLane="best"/>
   <vehicle id="hS2N_182" type="ego_car" route="S2N" depart="1025" departSpeed="10" departLane="best"/>
   <vehicle id="hN2S_183" type="ego_car" route="N2S" depart="1027" departSpeed="10" departLane="best"/>
   <vehicle id="E2W_184" type="ego_car" route="E2W" depart="1028" departSpeed="10" departLane="best"/>
   <vehicle id="hE2W_185" type="ego_car" route="E2W" depart="1036" departSpeed="10" departLane="best"/>
   <vehicle id="hE2W_186" type="ego_car" route="E2W" depart="1043" departSpeed="10" departLane="best"/>
   <vehicle id="hN2S_187" type="ego_car" route="N2S" depart="1044" departSpeed="10" departLane="best"/>
   <vehicle id="E2W_188" type="ego_car" route="E2W" depart="1045" departSpeed="10" departLane="best"/>
   <vehicle id="E2W_189" type="ego_car" route="E2W" depart="1051" departSpeed="10" departLane="best"/>
   <vehicle id="hE2W_190" type="ego_car" route="E2W" depart="1058" departSpeed="10" departLane="best"/>
   <vehicle id="hW2E_191" type="ego_car" route="W2E" depart="1059" departSpeed="10" departLane="best"/>
   <vehicle id="hN2S_192" type="ego_car" route="N2S" depart="1064" departSpeed="10" departLane="best"/>
   <vehicle id="E2W_193" type="ego_car" route="E2W" depart="1070" departSpeed="10" departLane="best"/>
   <vehicle id="hE2W_194" type="ego_car" route="E2W" depart="1071" departSpeed="10" departLane="best"/>
   <vehicle id="hN2S_195" type="ego_car" route="N2S" depart="1072" departSpeed="10" departLane="best"/>
   <vehicle id="hS2N_196" type="ego_car" route="S2N" depart="1075" departSpeed="10" departLane="best"/>
   <vehicle id="hN2S_197" type="ego_car" route="N2S" depart="1076" departSpeed="10" departLane="best"/>
   <vehicle id="S2N_198" type="ego_car" route="S2N" depart="1078" departSpeed="10" departLane="best"/>
   <vehicle id="hE2W_199" type="ego_car" route="E2W" depart="1081" departSpeed="10" departLane="best"/>
   <vehicle id="hE2W_200" type="ego_car" route="E2W" depart="1088" departSpeed="10" departLane="best"/>
   <vehicle id="hN2S_201" type="ego_car" route="N2S" depart="1091" departSpeed="10" departLane="best"/>
   <vehicle id="hN2S_202" type="ego_car" route="N2S" depart="1103" departSpeed="10" departLane="best"/>
   <vehicle id="hS2N_203" type="ego_car" route="S2N" depart="1123" departSpeed="10" departLane="best"/>
   <vehicle id="N2S_204" type="ego_car" route="N2S" depart="1125" departSpeed="10" departLane="best"/>
   <vehicle id="hN2S_205" type="ego_car" route="N2S" depart="1125" departSpeed="10" departLane="best"/>
   <vehicle id="S2N_206" type="ego_car" route="S2N" depart="1128" departSpeed="10" departLane="best"/>
   <vehicle id="hW2E_207" type="ego_car" route="W2E" depart="1129" departSpeed="10" departLane="best"/>
   <vehicle id="N2S_208" type="ego_car" route="N2S" depart="1130" departSpeed="10" departLane="best"/>
   <vehicle id="hN2S_209" type="ego_car" route="N2S" depart="1134" departSpeed="10" departLane="best"/>
   <vehicle id="hE2W_210" type="ego_car" route="E2W" depart="1136" departSpeed="10" departLane="best"/>
   <vehicle id="hS2N_211" type="ego_car" route="S2N" depart="1137" departSpeed="10" departLane="best"/>
   <vehicle id="hE2W_212" type="ego_car" route="E2W" depart="1137" departSpeed="10" departLane="best"/>
   <vehicle id="hW2E_213" type="ego_car" route="W2E" depart="1138" departSpeed="10" departLane="best"/>
   <vehicle id="hW2E_214" type="ego_car" route="W2E" depart="1147" departSpeed="10" departLane="best"/>
   <vehicle id="hW2E_215" type="ego_car" route="W2E" depart="1159" departSpeed="10" departLane="best"/>
   <vehicle id="hS2N_216" type="ego_car" route="S2N" depart="1165" departSpeed="10" departLane="best"/>
   <vehicle id="hE2W_217" type="ego_car" route="E2W" depart="1165" departSpeed="10" departLane="best"/>
   <vehicle id="hS2N_218" type="ego_car" route="S2N" depart="1166" departSpeed="10" departLane="best"/>
   <vehicle id="N2S_219" type="ego_car" route="N2S" depart="1172" departSpeed="10" departLane="best"/>
   <vehicle id="hS2N_220" type="ego_car" route="S2N" depart="1176" departSpeed="10" departLane="best"/>
   <vehicle id="hN2S_221" type="ego_car" route="N2S" depart="1179" departSpeed="10" departLane="best"/>
   <vehicle id="hE2W_222" type="ego_car" route="E2W" depart="1182" departSpeed="10" departLane="best"/>
   <vehicle id="hW2E_223" type="ego_car" route="W2E" depart="1183" departSpeed="10" departLane="best"/>
   <vehicle id="hN2S_224" type="ego_car" route="N2S" depart="1183" departSpeed="10" departLane="best"/>
   <vehicle id="N2S_225" type="ego_car" route="N2S" depart="1184" departSpeed="10" departLane="best"/>
   <vehicle id="hS2N_226" type="ego_car" route="S2N" depart="1193" departSpeed="10" departLane="best"/>
   <vehicle id="hN2S_227" type="ego_car" route="N2S" depart="1196" departSpeed="10" departLane="best"/>
   <vehicle id="hS2N_228" type="ego_car" route="S2N" depart="1203" departSpeed="10" departLane="best"/>
   <vehicle id="S2N_229" type="ego_car" route="S2N" depart="1210" departSpeed="10" departLane="best"/>
   <vehicle id="hW2E_230" type="ego_car" route="W2E" depart="1214" departSpeed="10" departLane="best"/>
   <vehicle id="N2S_231" type="ego_car" route="N2S" depart="1215" departSpeed="10" departLane="best"/>
   <vehicle id="S2N_232" type="ego_car" route="S2N" depart="1217" departSpeed="10" departLane="best"/>
   <vehicle id="hE2W_233" type="ego_car" route="E2W" depart="1229" departSpeed="10" departLane="best"/>
   <vehicle id="hW2E_234" type="ego_car" route="W2E" depart="1231" departSpeed="10" departLane="best"/>
   <vehicle id="E2W_235" type="ego_car" route="E2W" depart="1241" departSpeed="10" departLane="best"/>
   <vehicle id="E2W_236" type="ego_car" route="E2W" depart="1244" departSpeed="10" departLane="best"/>
   <vehicle id="hW2E_237" type="ego_car" route="W2E" depart="1249" departSpeed="10" departLane="best"/>
   <vehicle id="N2S_238" type="ego_car" route="N2S" depart="1252" departSpeed="10" departLane="best"/>
   <vehicle id="hW2E_239" type="ego_car" route="W2E" depart="1255" departSpeed="10" departLane="best"/>
   <vehicle id="hS2N_240" type="ego_car" route="S2N" depart="1257" departSpeed="10" departLane="best"/>
   <vehicle id="hE2W_241" type="ego_car" route="E2W" depart="1263" departSpeed="10" departLane="best"/>
   <vehicle id="hN2S_242" type="ego_car" route="N2S" depart="1267" departSpeed="10" departLane="best"/>
   <vehicle id="hN2S_243" type="ego_car" route="N2S" depart="1268" departSpeed="10" departLane="best"/>
   <vehicle id="hN2S_244" type="ego_car" route="N2S" depart="1272" departSpeed="10" departLane="best"/>
   <vehicle id="N2S_245" type="ego_car" route="N2S" depart="1280" departSpeed="10" departLane="best"/>
   <vehicle id="hE2W_246" type="ego_car" route="E2W" depart="1289" departSpeed="10" departLane="best"/>
   <vehicle id="N2S_247" type="ego_car" route="N2S" depart="1293" departSpeed="10" departLane="best"/>
   <vehicle id="hW2E_248" type="ego_car" route="W2E" depart="1294" departSpeed="10" departLane="best"/>
   <vehicle id="hS2N_249" type="ego_car" route="S2N" depart="1308" departSpeed="10" departLane="best"/>
   <vehicle id="hE2W_250" type="ego_car" route="E2W" depart="1310" departSpeed="10" departLane="best"/>
   <vehicle id="hN2S_251" type="ego_car" route="N2S" depart="1319" departSpeed="10" departLane="best"/>
   <vehicle id="hE2W_252" type="ego_car" route="E2W" depart="1319" departSpeed="10" departLane="best"/>
   <vehicle id="N2S_253" type="ego_car" route="N2S" depart="1320" departSpeed="10" departLane="best"/>
   <vehicle id="hS2N_254" type="ego_car" route="S2N" depart="1322" departSpeed="10" departLane="best"/>
   <vehicle id="hS2N_255" type="ego_car" route="S2N" depart="1324" departSpeed="10" departLane="best"/>
   <vehicle id="hW2E_256" type="ego_car" route="W2E" depart="1327" departSpeed="10" departLane="best"/>
   <vehicle id="S2N_257" type="ego_car" route="S2N" depart="1329" departSpeed="10" departLane="best"/>
   <vehicle id="N2S_258" type="ego_car" route="N2S" depart="1332" departSpeed="10" departLane="best"/>
   <vehicle id="hW2E_259" type="ego_car" route="W2E" depart="1334" departSpeed="10" departLane="best"/>
   <vehicle id="hW2E_260" type="ego_car" route="W2E" depart="1338" departSpeed="10" departLane="best"/>
   <vehicle id="hS2N_261" type="ego_car" route="S2N" depart="1338" departSpeed="10" departLane="best"/>
   <vehicle id="hE2W_262" type="ego_car" route="E2W" depart="1344" departSpeed="10" departLane="best"/>
   <vehicle id="hE2W_263" type="ego_car" route="E2W" depart="1344" departSpeed="10" departLane="best"/>
   <vehicle id="W2E_264" type="ego_car" route="W2E" depart="1353" departSpeed="10" departLane="best"/>
   <vehicle id="hS2N_265" type="ego_car" route="S2N" depart="1355" departSpeed="10" departLane="best"/>
   <vehicle id="hE2W_266" type="ego_car" route="E2W" depart="1358" departSpeed="10" departLane="best"/>
   <vehicle id="hS2N_267" type="ego_car" route="S2N" depart="1361" departSpeed="10" departLane="best"/>
   <vehicle id="hN2S_268" type="ego_car" route="N2S" depart="1362" departSpeed="10" departLane="best"/>
   <vehicle id="hS2N_269" type="ego_car" route="S2N" depart="1367" departSpeed="10" departLane="best"/>
   <vehicle id="W2E_270" type="ego_car" route="W2E" depart="1387" departSpeed="10" departLane="best"/>
   <vehicle id="hW2E_271" type="ego_car" route="W2E" depart="1396" departSpeed="10" departLane="best"/>
   <vehicle id="hS2N_272" type="ego_car" route="S2N" depart="1397" departSpeed="10" departLane="best"/>
   <vehicle id="hE2W_273" type="ego_car" route="E2W" depart="1401" departSpeed="10" departLane="best"/>
   <vehicle id="hN2S_274" type="ego_car" route="N2S" depart="1407" departSpeed="10" departLane="best"/>
   <vehicle id="S2N_275" type="ego_car" route="S2N" depart="1410" departSpeed="10" departLane="best"/>
   <vehicle id="W2E_276" type="ego_car" route="W2E" depart="1411" departSpeed="10" departLane="best"/>
   <vehicle id="E2W_277" type="ego_car" route="E2W" depart="1420" departSpeed="10" departLane="best"/>
   <vehicle id="hN2S_278" type="ego_car" route="N2S" depart="1428" departSpeed="10" departLane="best"/>
   <vehicle id="hE2W_279" type="ego_car" route="E2W" depart="1433" departSpeed="10" departLane="best"/>
   <vehicle id="hS2N_280" type="ego_car" route="S2N" depart="1434" departSpeed="10" departLane="best"/>
   <vehicle id="hN2S_281" type="ego_car" route="N2S" depart="1437" departSpeed="10" departLane="best"/>
   <vehicle id="E2W_282" type="ego_car" route="E2W" depart="1461" departSpeed="10" departLane="best"/>
   <vehicle id="hW2E_283" type="ego_car" route="W2E" depart="1480" departSpeed="10" departLane="best"/>
   <vehicle id="hE2W_284" type="ego_car" route="E2W" depart="1483" departSpeed="10" departLane="best"/>
   <vehicle id="hS2N_285" type="ego_car" route="S2N" depart="1497" departSpeed="10" departLane="best"/>
   <vehicle id="hN2S_286" type="ego_car" route="N2S" depart="1506" departSpeed="10" departLane="best"/>
   <vehicle id="hW2E_287" type="ego_car" route="W2E" depart="1510" departSpeed="10" departLane="best"/>
   <vehicle id="N2S_288" type="ego_car" route="N2S" depart="1513" departSpeed="10" departLane="best"/>