<routes>

        <vType id = 'ego_car' vclass="evehicle" emissionClass="Energy" tau="1.5" accel="3.0" decel="3.0" color="#00FFFF" sigma="0.2" length="4.90" minGap="1.0" maxSpeed="20" carFollowing="IDM" guiShape="passenger"/>

        <route id="N2S" edges="NS -SN"/>
        <route id="S2N" edges="SN -NS"/>
        <route id="W2E" edges="WE -EW"/>
        <route id="E2W" edges="EW -WE"/>
   <vehicle id="hE2W_1" type="ego_car" route="E2W" depart="32" departSpeed="10" departLane="best"/>
   <vehicle id="N2S_2" type="ego_car" route="N2S" depart="54" departSpeed="10" departLane="best"/>
   <vehicle id="hN2S_3" type="ego_car" route="N2S" depart="68" departSpeed="10" departLane="best"/>
   <vehicle id="N2S_4" type="ego_car" route="N2S" depart="100" departSpeed="10" departLane="best"/>
   <vehicle id="hE2W_5" type="ego_car" route="E2W" depart="107" departSpeed="10" departLane="best"/>
   <vehicle id="hW2E_6" type="ego_car" route="W2E" depart="144" departSpeed="10" departLane="best"/>
   <vehicle id="hW2E_7" type="ego_car" route="W2E" depart="155" departSpeed="10" departLane="best"/>
   <vehicle id="S2N_8" type="ego_car" route="S2N" depart="179" departSpeed="10" departLane="best"/>
   <vehicle id="hS2N_9" type="ego_car" route="S2N" depart="184" departSpeed="10" departLane="best"/>
   <vehicle id="W2E_10" type="ego_car" route="W2E" depart="194" departSpeed="10" departLane="best"/>
   <vehicle id="S2N_11" type="ego_car" route="S2N" depart="202" departSpeed="10" departLane="best"/>
   <vehicle id="hE2W_12" type="ego_car" route="E2W" depart="207" departSpeed="10" departLane="best"/>
   <vehicle id="S2N_13" type="ego_car" route="S2N" depart="210" departSpeed="10" departLane="best"/>
   <vehicle id="S2N_14" type="ego_car" route="S2N" depart="221" departSpeed="10" departLane="best"/>
   <vehicle id="hS2N_15" type="ego_car" route="S2N" depart="237" departSpeed="10" departLane="best"/>
   <vehicle id="hE2W_16" type="ego_car" route="E2W" depart="266" departSpeed="10" departLane="best"/>
   <vehicle id="S2N_17" type="ego_car" route="S2N" depart="272" departSpeed="10" departLane="best"/>
   <vehicle id="hE2W_18" type="ego_car" route="E2W" depart="282" departSpeed="10" departLane="best"/>
   <vehicle id="hE2W_19" type="ego_car" route="E2W" depart="290" departSpeed="10" departLane="best"/>
   <vehicle id="W2E_20" type="ego_car" route="W2E" depart="296" departSpeed="10" departLane="best"/>
   <vehicle id="hN2S_21" type="ego_car" route="N2S" depart="300" departSpeed="10" departLane="best"/>
   <vehicle id="hW2E_22" type="ego_car" route="W2E" depart="303" departSpeed="10" departLane="best"/>
   <vehicle id="hS2N_23" type="ego_car" route="S2N" depart="305" departSpeed="10" departLane="best"/>
   <vehicle id="E2W_24" type="ego_car" route="E2W" depart="316" departSpeed="10" departLane="best"/>
   <vehicle id="hN2S_25" type="ego_car" route="N2S" depart="319" departSpeed="10" departLane="best"/>
   <vehicle id="hW2E_26" type="ego_car" route="W2E" depart="319" departSpeed="10" departLane="best"/>
   <vehicle id="S2N_27" type="ego_car" route="S2N" depart="320" departSpeed="10" departLane="best"/>
   <vehicle id="N2S_28" type="ego_car" route="N2S" depart="326" departSpeed="10" departLane="best"/>
   <vehicle id="hE2W_29" type="ego_car" route="E2W" depart="332" departSpeed="10" departLane="best"/>
   <vehicle id="hE2W_30" type="ego_car" route="E2W" depart="335" departSpeed="10" departLane="best"/>
   <vehicle id="hS2N_31" type="ego_car" route="S2N" depart="336" departSpeed="10" departLane="best"/>
   <vehicle id="hS2N_32" type="ego_car" route="S2N" depart="340" departSpeed="10" departLane="best"/>
   <vehicle id="hS2N_33" type="ego_car" route="S2N" depart="345" departSpeed="10" departLane="best"/>
   <vehicle id="hW2E_34" type="ego_car" route="W2E" depart="347" departSpeed="10" departLane="best"/>
   <vehicle id="hN2S_35" type="ego_car" route="N2S" depart="352" departSpeed="10" departLane="best"/>
   <vehicle id="hW2E_36" type="ego_car" route="W2E" depart="370" departSpeed="10" departLane="best"/>
   <vehicle id="hS2N_37" type="ego_car" route="S2N" depart="371" departSpeed="10" departLane="best"/>
   <vehicle id="hN2S_38" type="ego_car" route="N2S" depart="385" departSpeed="10" departLane="best"/>
   <vehicle id="hN2S_39" type="ego_car" route="N2S" depart="385" departSpeed="10" departLane="best"/>
   <vehicle id="hS2N_40" type="ego_car" route="S2N" depart="389" departSpeed="10" departLane="best"/>
   <vehicle id="hN2S_41" type="ego_car" route="N2S" depart="401" departSpeed="10" departLane="best"/>
   <vehicle id="W2E_42" type="ego_car" route="W2E" depart="406" departSpeed="10" departLane="best"/>
   <vehicle id="N2S_43" type="ego_car" route="N2S" depart="407" departSpeed="10" departLane="best"/>
   <vehicle id="hE2W_44" type="ego_car" route="E2W" depart="408" departSpeed="10" departLane="best"/>
   <vehicle id="S2N_45" type="ego_car" route="S2N" depart="408" departSpeed="10" departLane="best"/>
   <vehicle id="E2W_46" type="ego_car" route="E2W" depart="416" departSpeed="10" departLane="best"/>
   <vehicle id="W2E_47" type="ego_car" route="W2E" depart="417" departSpeed="10" departLane="best"/>
   <vehicle id="hE2W_48" type="ego_car" route="E2W" depart="418" departSpeed="10" departLane="best"/>
   <vehicle id="hN2S_49" type="ego_car" route="N2S" depart="419" departSpeed="10" departLane="best"/>
   <vehicle id="hE2W_50" type="ego_car" route="E2W" depart="423" departSpeed="10" departLane="best"/>
   <vehicle id="hE2W_51" type="ego_car" route="E2W" depart="425" departSpeed="10" departLane="best"/>
   <vehicle id="E2W_52" type="ego_car" route="E2W" depart="435" departSpeed="10" departLane="best"/>
   <vehicle id="hS2N_53" type="ego_car" route="S2N" depart="435" departSpeed="10" departLane="best"/>
   <vehicle id="hN2S_54" type="ego_car" route="N2S" depart="454" departSpeed="10" departLane="best"/>
   <vehicle id="hE2W_55" type="ego_car" route="E2W" depart="457" departSpeed="10" departLane="best"/>
   <vehicle id="hS2N_56" type="ego_car" route="S2N" depart="466" departSpeed="10" departLane="best"/>
   <vehicle id="W2E_57" type="ego_car" route="W2E" depart="471" departSpeed="10" departLane="best"/>
   <vehicle id="hW2E_58" type="ego_car" route="W2E" depart="472" departSpeed="10" departLane="best"/>
   <vehicle id="E2W_59" type="ego_car" route="E2W" depart="482" departSpeed="10" departLane="best"/>
   <vehicle id="hN2S_60" type="ego_car" route="N2S" depart="486" departSpeed="10" departLane="best"/>
   <vehicle id="hW2E_61" type="ego_car" route="W2E" depart="494" departSpeed="10" departLane="best"/>
   <vehicle id="hS2N_62" type="ego_car" route="S2N" depart="501" departSpeed="10" departLane="best"/>
   <vehicle id="hE2W_63" type="ego_car" route="E2W" depart="504" departSpeed="10" departLane="best"/>
   <vehicle id="hS2N_64" type="ego_car" route="S2N" depart="519" departSpeed="10" departLane="best"/>
   <vehicle id="hN2S_65" type="ego_car" route="N2S" depart="530" departSpeed="10" departLane="best"/>
   <vehicle id="hS2N_66" type="ego_car" route="S2N" depart="536" departSpeed="10" departLane="best"/>
   <vehicle id="E2W_67" type="ego_car" route="E2W" depart="542" departSpeed="10" departLane="best"/>
   <vehicle id="N2S_68" type="ego_car" route="N2S" depart="553" departSpeed="10" departLane="best"/>
   <vehicle id="hS2N_69" type="ego_car" route="S2N" depart="554" departSpeed="10" departLane="best"/>
   <vehicle id="hS2N_70" type="ego_car" route="S2N" depart="555" departSpeed="10" departLane="best"/>
   <vehicle id="S2N_71" type="ego_car" route="S2N" depart="555" departSpeed="10" departLane="best"/>
   <vehicle id="hW2E_72" type="ego_car" route="W2E" depart="564" departSpeed="10" departLane="best"/>
   <vehicle id="hS2N_73" type="ego_car" route="S2N" depart="564" departSpeed="10" departLane="best"/>
   <vehicle id="hN2S_74" type="ego_car" route="N2S" depart="569" departSpeed="10" departLane="best"/>
   <vehicle id="hN2S_75" type="ego_car" route="N2S" depart="575" departSpeed="10" departLane="best"/>
   <vehicle id="hS2N_76" type="ego_car" route="S2N" depart="577" departSpeed="10" departLane="best"/>
   <vehicle id="hS2N_77" type="ego_car" route="S2N" depart="577" departSpeed="10" departLane="best"/>
   <vehicle id="hS2N_78" type="ego_car" route="S2N" depart="581" departSpeed="10" departLane="best"/>
   <vehicle id="hN2S_79" type="ego_car" route="N2S" depart="584" departSpeed="10" departLane="best"/>
   <vehicle id="S2N_80" type="ego_car" route="S2N" depart="589" departSpeed="10" departLane="best"/>
   <vehicle id="hE2W_81" type="ego_car" route="E2W" depart="593" departSpeed="10" departLane="best"/>
   <vehicle id="hN2S_82" type="ego_car" route="N2S" depart="598" departSpeed="10" departLane="best"/>
   <vehicle id="hS2N_83" type="ego_car" route="S2N" depart="606" departSpeed="10" departLane="best"/>
   <vehicle id="hS2N_84" type="ego_car" route="S2N" depart="608" departSpeed="10" departLane="best"/>
   <vehicle id="hE2W_85" type="ego_car" route="E2W" depart="618" departSpeed="10" departLane="best"/>
   <vehicle id="N2S_86" type="ego_car" route="N2S" depart="621" departSpeed="10" departLane="best"/>
   <vehicle id="hE2W_87" type="ego_car" route="E2W" depart="621" departSpeed="10" departLane="best"/>
   <vehicle id="hS2N_88" type="ego_car" route="S2N" depart="629" departSpeed="10" departLane="best"/>
   <vehicle id="N2S_89" type="ego_car" route="N2S" depart="634" departSpeed="10" departLane="best"/>
   <vehicle id="W2E_90" type="ego_car" route="W2E" depart="639" departSpeed="10" departLane="best"/>
   <vehicle id="W2E_91" type="ego_car" route="W2E" depart="650" departSpeed="10" departLane="best"/>
   <vehicle id="hE2W_92" type="ego_car" route="E2W" depart="653" departSpeed="10" departLane="best"/>
   <vehicle id="hN2S_93" type="ego_car" route="N2S" depart="659" departSpeed="10" departLane="best"/>
   <vehicle id="hN2S_94" type="ego_car" route="N2S" depart="667" departSpeed="10" departLane="best"/>
   <vehicle id="S2N_95" type="ego_car" route="S2N" depart="667" departSpeed="10" departLane="best"/>
   <vehicle id="hS2N_96" type="ego_car" route="S2N" depart="667" departSpeed="10" departLane="best"/>
   <vehicle id="hE2W_97" type="ego_car" route="E2W" depart="671" departSpeed="10" departLane="best"/>
   <vehicle id="hN2S_98" type="ego_car" route="N2S" depart="673" departSpeed="10" departLane="best"/>
   <vehicle id="hS2N_99" type="ego_car" route="S2N" depart="676" departSpeed="10" departLane="best"/>
   <vehicle id="hN2S_100" type="ego_car" route="N2S" depart="679" departSpeed="10" departLane="best"/>
   <vehicle id="W2E_101" type="ego_car" route="W2E" depart="682" departSpeed="10" departLane="best"/>
   <vehicle id="hE2W_102" type="ego_car" route="E2W" depart="682" departSpeed="10" departLane="best"/>
   <vehicle id="hS2N_103" type="ego_car" route="S2N" depart="682" departSpeed="10" departLane="best"/>
   <vehicle id="hS2N_104" type="ego_car" route="S2N" depart="684" departSpeed="10" departLane="best"/>
   <vehicle id="hN2S_105" type="ego_car" route="N2S" depart="685" departSpeed="10" departLane="best"/>
   <vehicle id="hN2S_106" type="ego_car" route="N2S" depart="685" departSpeed="10" departLane="best"/>
   <vehicle id="S2N_107" type="ego_car" route="S2N" depart="688" departSpeed="10" departLane="best"/>
   <vehicle id="hE2W_108" type="ego_car" route="E2W" depart="692" departSpeed="10" departLane="best"/>
   <vehicle id="hS2N_109" type="ego_car" route="S2N" depart="692" departSpeed="10" departLane="best"/>
   <vehicle id="hN2S_110" type="ego_car" route="N2S" depart="693" departSpeed="10" departLane="best"/>
   <vehicle id="hS2N_111" type="ego_car" route="S2N" depart="694" departSpeed="10" departLane="best"/>
   <vehicle id="hE2W_112" type="ego_car" route="E2W" depart="695" departSpeed="10" departLane="best"/>
   <vehicle id="hS2N_113" type="ego_car" route="S2N" depart="703" departSpeed="10" departLane="best"/>
   <vehicle id="E2W_114" type="ego_car" route="E2W" depart="705" departSpeed="10" departLane="best"/>
   <vehicle id="hS2N_115" type="ego_car" route="S2N" depart="709" departSpeed="10" departLane="best"/>
   <vehicle id="hE2W_116" type="ego_car" route="E2W" depart="711" departSpeed="10" departLane="best"/>
   <vehicle id="hS2N_117" type="ego_car" route="S2N" depart="718" departSpeed="10" departLane="best"/>
   <vehicle id="hE2W_118" type="ego_car" route="E2W" depart="721" departSpeed="10" departLane="best"/>
   <vehicle id="hS2N_119" type="ego_car" route="S2N" depart="722" departSpeed="10" departLane="best"/>
   <vehicle id="S2N_120" type="ego_car" route="S2N" depart="725" departSpeed="10" departLane="best"/>
   <vehicle id="hS2N_121" type="ego_car" route="S2N" depart="729" departSpeed="10" departLane="best"/>
   <vehicle id="hN2S_122" type="ego_car" route="N2S" depart="730" departSpeed="10" departLane="best"/>
   <vehicle id="hS2N_123" type="ego_car" route="S2N" depart="732" departSpeed="10" departLane="best"/>
   <vehicle id="hS2N_124" type="ego_car" route="S2N" depart="733" departSpeed="10" departLane="best"/>
   <vehicle id="E2W_125" type="ego_car" route="E2W" depart="735" departSpeed="10" departLane="best"/>
   <vehicle id="hE2W_126" type="ego_car" route="E2W" depart="735" departSpeed="10" departLane="best"/>
   <vehicle id="N2S_127" type="ego_car" route="N2S" depart="738" departSpeed="10" departLane="best"/>
   <vehicle id="hE2W_128" type="ego_car" route="E2W" depart="741" departSpeed="10" departLane="best"/>
   <vehicle id="hN2S_129" type="ego_car" route="N2S" depart="749" departSpeed="10" departLane="best"/>
   <vehicle id="hS2N_130" type="ego_car" route="S2N" depart="756" departSpeed="10" departLane="best"/>
   <vehicle id="hE2W_131" type="ego_car" route="E2W" depart="757" departSpeed="10" departLane="best"/>
   <vehicle id="E2W_132" type="ego_car" route="E2W" depart="761" departSpeed="10" departLane="best"/>
   <vehicle id="hN2S_133" type="ego_car" route="N2S" depart="764" departSpeed="10" departLane="best"/>
   <vehicle id="hS2N_134" type="ego_car" route="S2N" depart="764" departSpeed="10" departLane="best"/>
   <vehicle id="S2N_135" type="ego_car" route="S2N" depart="764" departSpeed="10" departLane="best"/>
   <vehicle id="hE2W_136" type="ego_car" route="E2W" depart="775" departSpeed="10" departLane="best"/>
   <vehicle id="S2N_137" type="ego_car" route="S2N" depart="775" departSpeed="10" departLane="best"/>
   <vehicle id="hN2S_138" type="ego_car" route="N2S" depart="780" departSpeed="10" departLane="best"/>
   <vehicle id="hE2W_139" type="ego_car" route="E2W" depart="782" departSpeed="10" departLane="best"/>
   <vehicle id="E2W_140" type="ego_car" route="E2W" depart="785" departSpeed="10" departLane="best"/>
   <vehicle id="hE2W_141" type="ego_car" route="E2W" depart="794" departSpeed="10" departLane="best"/>
   <vehicle id="hN2S_142" type="ego_car" route="N2S" depart="798" departSpeed="10" departLane="best"/>
   <vehicle id="hE2W_143" type="ego_car" route="E2W" depart="807" departSpeed="10" departLane="best"/>
   <vehicle id="hS2N_144" type="ego_car" route="S2N" depart="809" departSpeed="10" departLane="best"/>
   <vehicle id="hW2E_145" type="ego_car" route="W2E" depart="817" departSpeed="10" departLane="best"/>
   <vehicle id="E2W_146" type="ego_car" route="E2W" depart="817" departSpeed="10" departLane="best"/>
   <vehicle id="hW2E_147" type="ego_car" route="W2E" depart="820" departSpeed="10" departLane="best"/>
   <vehicle id="hE2W_148" type="ego_car" route="E2W" depart="824" departSpeed="10" departLane="best"/>
   <vehicle id="E2W_149" type="ego_car" route="E2W" depart="826" departSpeed="10" departLane="best"/>
   <vehicle id="hE2W_150" type="ego_car" route="E2W" depart="831" departSpeed="10" departLane="best"/>
   <vehicle id="hN2S_151" type="ego_car" route="N2S" depart="834" departSpeed="10" departLane="best"/>
   <vehicle id="hE2W_152" type="ego_car" route="E2W" depart="838" departSpeed="10" departLane="best"/>
   <vehicle id="hW2E_153" type="ego_car" route="W2E" depart="840" departSpeed="10" departLane="best"/>
   <vehicle id="hW2E_154" type="ego_car" route="W2E" depart="840" departSpeed="10" departLane="best"/>
   <vehicle id="E2W_155" type="ego_car" route="E2W" depart="840" departSpeed="10" departLane="best"/>
   <vehicle id="E2W_156" type="ego_car" route="E2W" depart="843" departSpeed="10" departLane="best"/>
   <vehicle id="hE2W_157" type="ego_car" route="E2W" depart="845" departSpeed="10" departLane="best"/>
   <vehicle id="hE2W_158" type="ego_car" route="E2W" depart="846" departSpeed="10" departLane="best"/>
   <vehicle id="S2N_159" type="ego_car" route="S2N" depart="848" departSpeed="10" departLane="best"/>
   <vehicle id="N2S_160" type="ego_car" route="N2S" depart="849" departSpeed="10" departLane="best"/>
   <vehicle id="N2S_161" type="ego_car" route="N2S" depart="855" departSpeed="10" departLane="best"/>
   <vehicle id="hE2W_162" type="ego_car" route="E2W" depart="855" departSpeed="10" departLane="best"/>
   <vehicle id="E2W_163" type="ego_car" route="E2W" depart="863" departSpeed="10" departLane="best"/>
   <vehicle id="hS2N_164" type="ego_car" route="S2N" depart="864" departSpeed="10" departLane="best"/>
   <vehicle id="hE2W_165" type="ego_car" route="E2W" depart="865" departSpeed="10" departLane="best"/>
   <vehicle id="E2W_166" type="ego_car" route="E2W" depart="867" departSpeed="10" departLane="best"/>
   <vehicle id="S2N_167" type="ego_car" route="S2N" depart="868" departSpeed="10" departLane="best"/>
   <vehicle id="hW2E_168" type="ego_car" route="W2E" depart="870" departSpeed="10" departLane="best"/>
   <vehicle id="N2S_169" type="ego_car" route="N2S" depart="870" departSpeed="10" departLane="best"/>
   <vehicle id="E2W_170" type="ego_car" route="E2W" depart="871" departSpeed="10" departLane="best"/>
   <vehicle id="hN2S_171" type="ego_car" route="N2S" depart="872" departSpeed="10" departLane="best"/>
   <vehicle id="hS2N_172" type="ego_car" route="S2N" depart="875" departSpeed="10" departLane="best"/>
   <vehicle id="hE2W_173" type="ego_car" route="E2W" depart="876" departSpeed="10" departLane="best"/>
   <vehicle id="hE2W_174" type="ego_car" route="E2W" depart="882" departSpeed="10" departLane="best"/>
   <vehicle id="hE2W_175" type="ego_car" route="E2W" depart="886" departSpeed="10" departLane="best"/>
   <vehicle id="E2W_176" type="ego_car" route="E2W" depart="886" departSpeed="10" departLane="best"/>
   <vehicle id="S2N_177" type="ego_car" route="S2N" depart="892" departSpeed="10" departLane="best"/>
   <vehicle id="hS2N_178" type="ego_car" route="S2N" depart="895" departSpeed="10" departLane="best"/>
   <vehicle id="hE2W_179" type="ego_car" route="E2W" depart="895" departSpeed="10" departLane="best"/>
   <vehicle id="hS2N_180" type="ego_car" route="S2N" depart="898" departSpeed="10" departLane="best"/>
   <vehicle id="hE2W_181" type="ego_car" route="E2W" depart="898" departSpeed="10" departLane="best"/>
   <vehicle id="hW2E_182" type="ego_car" route="W2E" depart="900" departSpeed="10" departLane="best"/>
   <vehicle id="hS2N_183" type="ego_car" route="S2N" depart="908" departSpeed="10" departLane="best"/>
   <vehicle id="E2W_184" type="ego_car" route="E2W" depart="911" departSpeed="10" departLane="best"/>
   <vehicle id="hN2S_185" type="ego_car" route="N2S" depart="919" departSpeed="10" departLane="best"/>
   <vehicle id="hW2E_186" type="ego_car" route="W2E" depart="921" departSpeed="10" departLane="best"/>
   <vehicle id="hE2W_187" type="ego_car" route="E2W" depart="928" departSpeed="10" departLane="best"/>
   <vehicle id="S2N_188" type="ego_car" route="S2N" depart="939" departSpeed="10" departLane="best"/>
   <vehicle id="W2E_189" type="ego_car" route="W2E" depart="948" departSpeed="10" departLane="best"/>
   <vehicle id="hE2W_190" type="ego_car" route="E2W" depart="949" departSpeed="10" departLane="best"/>
   <vehicle id="hE2W_191" type="ego_car" route="E2W" depart="952" departSpeed="10" departLane="best"/>
   <vehicle id="hS2N_192" type="ego_car" route="S2N" depart="954" departSpeed="10" departLane="best"/>
   <vehicle id="N2S_193" type="ego_car" route="N2S" depart="956" departSpeed="10" departLane="best"/>
   <vehicle id="hN2S_194" type="ego_car" route="N2S" depart="960" departSpeed="10" departLane="best"/>
   <vehicle id="hN2S_195" type="ego_car" route="N2S" depart="968" departSpeed="10" departLane="best"/>
   <vehicle id="hS2N_196" type="ego_car" route="S2N" depart="981" departSpeed="10" departLane="best"/>
   <vehicle id="hE2W_197" type="ego_car" route="E2W" depart="983" departSpeed="10" departLane="best"/>
   <vehicle id="N2S_198" type="ego_car" route="N2S" depart="985" departSpeed="10" departLane="best"/>
   <vehicle id="hW2E_199" type="ego_car" route="W2E" depart="987" departSpeed="10" departLane="best"/>
   <vehicle id="hW2E_200" type="ego_car" route="W2E" depart="987" departSpeed="10" departLane="best"/>
   <vehicle id="hN2S_201" type="ego_car" route="N2S" depart="987" departSpeed="10" departLane="best"/>
   <vehicle id="hS2N_202" type="ego_car" route="S2N" depart="989" departSpeed="10" departLane="best"/>
   <vehicle id="hN2S_203" type="ego_car" route="N2S" depart="990" departSpeed="10" departLane="best"/>
   <vehicle id="E2W_204" type="ego_car" route="E2W" depart="990" departSpeed="10" departLane="best"/>
   <vehicle id="hS2N_205" type="ego_car" route="S2N" depart="1014" departSpeed="10" departLane="best"/>
   <vehicle id="S2N_206" type="ego_car" route="S2N" depart="1018" departSpeed="10" departLane="best"/>
   <vehicle id="hW2E_207" type="ego_car" route="W2E" depart="1027" departSpeed="10" departLane="best"/>
   <vehicle id="S2N_208" type="ego_car" route="S2N" depart="1028" departSpeed="10" departLane="best"/>
   <vehicle id="hN2S_209" type="ego_car" route="N2S" depart="1034" departSpeed="10" departLane="best"/>
   <vehicle id="hN2S_210" type="ego_car" route="N2S" depart="1034" departSpeed="10" departLane="best"/>
   <vehicle id="hN2S_211" type="ego_car" route="N2S" depart="1034" departSpeed="10" departLane="best"/>
   <vehicle id="hS2N_212" type="ego_car" route="S2N" depart="1034" departSpeed="10" departLane="best"/>
   <vehicle id="hW2E_213" type="ego_car" route="W2E" depart="1036" departSpeed="10" departLane="best"/>
   <vehicle id="hE2W_214" type="ego_car" route="E2W" depart="1037" departSpeed="10" departLane="best"/>
   <vehicle id="hN2S_215" type="ego_car" route="N2S" depart="1038" departSpeed="10" departLane="best"/>
   <vehicle id="hN2S_216" type="ego_car" route="N2S" depart="1042" departSpeed="10" departLane="best"/>
   <vehicle id="hN2S_217" type="ego_car" route="N2S" depart="1044" departSpeed="10" departLane="best"/>
   <vehicle id="hS2N_218" type="ego_car" route="S2N" depart="1044" departSpeed="10" departLane="best"/>
   <vehicle id="N2S_219" type="ego_car" route="N2S" depart="1047" departSpeed="10" departLane="best"/>
   <vehicle id="hS2N_220" type="ego_car" route="S2N" depart="1048" departSpeed="10" departLane="best"/>
   <vehicle id="hN2S_221" type="ego_car" route="N2S" depart="1050" departSpeed="10" departLane="best"/>
   <vehicle id="hE2W_222" type="ego_car" route="E2W" depart="1058" departSpeed="10" departLane="best"/>
   <vehicle id="hS2N_223" type="ego_car" route="S2N" depart="1064" departSpeed="10" departLane="best"/>
   <vehicle id="hE2W_224" type="ego_car" route="E2W" depart="1065" departSpeed="10" departLane="best"/>
   <vehicle id="N2S_225" type="ego_car" route="N2S" depart="1078" departSpeed="10" departLane="best"/>
   <vehicle id="hE2W_226" type="ego_car" route="E2W" depart="1082" departSpeed="10" departLane="best"/>
   <vehicle id="hN2S_227" type="ego_car" route="N2S" depart="1089" departSpeed="10" departLane="best"/>
   <vehicle id="hS2N_228" type="ego_car" route="S2N" depart="1090" departSpeed="10" departLane="best"/>
   <vehicle id="N2S_229" type="ego_car" route="N2S" depart="1091" departSpeed="10" departLane="best"/>
   <vehicle id="hE2W_230" type="ego_car" route="E2W" depart="1094" departSpeed="10" departLane="best"/>
   <vehicle id="W2E_231" type="ego_car" route="W2E" depart="1104" departSpeed="10" departLane="best"/>
   <vehicle id="N2S_232" type="ego_car" route="N2S" depart="1108" departSpeed="10" departLane="best"/>
   <vehicle id="hE2W_233" type="ego_car" route="E2W" depart="1108" departSpeed="10" departLane="best"/>
   <vehicle id="hN2S_234" type="ego_car" route="N2S" depart="1118" departSpeed="10" departLane="best"/>
   <vehicle id="W2E_235" type="ego_car" route="W2E" depart="1122" departSpeed="10" departLane="best"/>
   <vehicle id="N2S_236" type="ego_car" route="N2S" depart="1124" departSpeed="10" departLane="best"/>
   <vehicle id="hW2E_237" type="ego_car" route="W2E" depart="1125" departSpeed="10" departLane="best"/>
   <vehicle id="N2S_238" type="ego_car" route="N2S" depart="1129" departSpeed="10" departLane="best"/>
   <vehicle id="hE2W_239" type="ego_car" route="E2W" depart="1133" departSpeed="10" departLane="best"/>
   <vehicle id="hE2W_240" type="ego_car" route="E2W" depart="1142" departSpeed="10" departLane="best"/>
   <vehicle id="hE2W_241" type="ego_car" route="E2W" depart="1144" departSpeed="10" departLane="best"/>
   <vehicle id="hN2S_242" type="ego_car" route="N2S" depart="1150" departSpeed="10" departLane="best"/>
   <vehicle id="hW2E_243" type="ego_car" route="W2E" depart="1151" departSpeed="10" departLane="best"/>
   <vehicle id="hN2S_244" type="ego_car" route="N2S" depart="1151" departSpeed="10" departLane="best"/>
   <vehicle id="N2S_245" type="ego_car" route="N2S" depart="1164" departSpeed="10" departLane="best"/>
   <vehicle id="hW2E_246" type="ego_car" route="W2E" depart="1169" departSpeed="10" departLane="best"/>
   <vehicle id="E2W_247" type="ego_car" route="E2W" depart="1171" departSpeed="10" departLane="best"/>
   <vehicle id="hS2N_248" type="ego_car" route="S2N" depart="1178" departSpeed="10" departLane="best"/>
   <vehicle id="hS2N_249" type="ego_car" route="S2N" depart="1178" departSpeed="10" departLane="best"/>
   <vehicle id="hS2N_250" type="ego_car" route="S2N" depart="1179" departSpeed="10" departLane="best"/>
   <vehicle id="hW2E_251" type="ego_car" route="W2E" depart="1182" departSpeed="10" departLane="best"/>
   <vehicle id="hN2S_252" type="ego_car" route="N2S" depart="1196" departSpeed="10" departLane="best"/>
   <vehicle id="S2N_253" type="ego_car" route="S2N" depart="1197" departSpeed="10" departLane="best"/>
   <vehicle id="hN2S_254" type="ego_car" route="N2S" depart="1200" departSpeed="10" departLane="best"/>
   <vehicle id="hE2W_255" type="ego_car" route="E2W" depart="1202" departSpeed="10" departLane="best"/>
   <vehicle id="hN2S_256" type="ego_car" route="N2S" depart="1207" departSpeed="10" departLane="best"/>
   <vehicle id="W2E_257" type="ego_car" route="W2E" depart="1211" departSpeed="10" departLane="best"/>
   <vehicle id="N2S_258" type="ego_car" route="N2S" depart="1213" departSpeed="10" departLane="best"/>
   <vehicle id="hS2N_259" type="ego_car" route="S2N" depart="1217" departSpeed="10" departLane="best"/>
   <vehicle id="hS2N_260" type="ego_car" route="S2N" depart="1221" departSpeed="10" departLane="best"/>
   <vehicle id="hW2E_261" type="ego_car" route="W2E" depart="1225" departSpeed="10" departLane="best"/>
   <vehicle id="hW2E_262" type="ego_car" route="W2E" depart="1226" departSpeed="10" departLane="best"/>
   <vehicle id="hN2S_263" type="ego_car" route="N2S" depart="1235" departSpeed="10" departLane="best"/>
   <vehicle id="E2W_264" type="ego_car" route="E2W" depart="1236" departSpeed="10" departLane="best"/>
   <vehicle id="hW2E_265" type="ego_car" route="W2E" depart="1244" departSpeed="10" departLane="best"/>
   <vehicle id="hE2W_266" type="ego_car" route="E2W" depart="1246" departSpeed="10" departLane="best"/>
   <vehicle id="hN2S_267" type="ego_car" route="N2S" depart="1247" departSpeed="10" departLane="best"/>
   <vehicle id="hS2N_268" type="ego_car" route="S2N" depart="1248" departSpeed="10" departLane="best"/>
   <vehicle id="hN2S_269" type="ego_car" route="N2S" depart="1257" departSpeed="10" departLane="best"/>
   <vehicle id="N2S_270" type="ego_car" route="N2S" depart="1264" departSpeed="10" departLane="best"/>
   <vehicle id="hE2W_271" type="ego_car" route="E2W" depart="1279" departSpeed="10" departLane="best"/>
   <vehicle id="hE2W_272" type="ego_car" route="E2W" depart="1279" departSpeed="10" departLane="best"/>
   <vehicle id="hS2N_273" type="ego_car" route="S2N" depart="1280" departSpeed="10" departLane="best"/>
   <vehicle id="hS2N_274" type="ego_car" route="S2N" depart="1287" departSpeed="10" departLane="best"/>
   <vehicle id="W2E_275" type="ego_car" route="W2E" depart="1288" departSpeed="10" departLane="best"/>
   <vehicle id="W2E_276" type="ego_car" route="W2E" depart="1302" departSpeed="10" departLane="best"/>
   <vehicle id="W2E_277" type="ego_car" route="W2E" depart="1324" departSpeed="10" departLane="best"/>
   <vehicle id="hE2W_278" type="ego_car" route="E2W" depart="1325" departSpeed="10" departLane="best"/>
   <vehicle id="hE2W_279" type="ego_car" route="E2W" depart="1340" departSpeed="10" departLane="best"/>
   <vehicle id="hW2E_280" type="ego_car" route="W2E" depart="1343" departSpeed="10" departLane="best"/>
   <vehicle id="hS2N_281" type="ego_car" route="S2N" depart="1356" departSpeed="10" departLane="best"/>
   <vehicle id="N2S_282" type="ego_car" route="N2S" depart="1363" departSpeed="10" departLane="best"/>
   <vehicle id="hW2E_283" type="ego_car" route="W2E" depart="1372" departSpeed="10" departLane="best"/>
   <vehicle id="hN2S_284" type="ego_car" route="N2S" depart="1379" departSpeed="10" departLane="best"/>
   <vehicle id="hE2W_285" type="ego_car" route="E2W" depart="1382" departSpeed="10" departLane="best"/>
   <vehicle id="hW2E_286" type="ego_car" route="W2E" depart="1403" departSpeed="10" departLane="best"/>
   <vehicle id="hE2W_287" type="ego_car" route="E2W" depart="1417" departSpeed="10" departLane="best"/>
   <vehicle id="W2E_288" type="ego_car" route="W2E" depart="1426" departSpeed="10" departLane="best"/>