<routes>

        <vType id = 'ego_car' vclass="evehicle" emissionClass="Energy" tau="1.5" accel="3.0" decel="3.0" color="#00FFFF" sigma="0.2" length="4.90" minGap="1.0" maxSpeed="20" carFollowing="IDM" guiShape="passenger"/>

        <route id="N2S" edges="NS -SN"/>
        <route id="S2N" edges="SN -NS"/>
        <route id="W2E" edges="WE -EW"/>
        <route id="E2W" edges="EW -WE"/>
   <vehicle id="hS2N_1" type="ego_car" route="S2N" depart="44" departSpeed="10" departLane="best"/>
   <vehicle id="W2E_2" type="ego_car" route="W2E" depart="85" departSpeed="10" departLane="best"/>
   <vehicle id="hE2W_3" type="ego_car" route="E2W" depart="90" departSpeed="10" departLane="best"/>
   <vehicle id="N2S_4" type="ego_car" route="N2S" depart="104" departSpeed="10" departLane="best"/>
   <vehicle id="hN2S_5" type="ego_car" route="N2S" depart="156" departSpeed="10" departLane="best"/>
   <vehicle id="hE2W_6" type="ego_car" route="E2W" depart="164" departSpeed="10" departLane="best"/>
   <vehicle id="hW2E_7" type="ego_car" route="W2E" depart="191" departSpeed="10" departLane="best"/>
   <vehicle id="N2S_8" type="ego_car" route="N2S" depart="213" departSpeed="10" departLane="best"/>
   <vehicle id="hS2N_9" type="ego_car" route="S2N" depart="219" departSpeed="10" departLane="best"/>
   <vehicle id="E2W_10" type="ego_car" route="E2W" depart="226" departSpeed="10" departLane="best"/>
   <vehicle id="W2E_11" type="ego_car" route="W2E" depart="233" departSpeed="10" departLane="best"/>
   <vehicle id="hW2E_12" type="ego_car" route="W2E" depart="236" departSpeed="10" departLane="best"/>
   <vehicle id="S2N_13" type="ego_car" route="S2N" depart="278" departSpeed="10" departLane="best"/>
   <vehicle id="E2W_14" type="ego_car" route="E2W" depart="321" departSpeed="10" departLane="best"/>
   <vehicle id="hN2S_15" type="ego_car" route="N2S" depart="322" departSpeed="10" departLane="best"/>
   <vehicle id="hS2N_16" type="ego_car" route="S2N" depart="325" departSpeed="10" departLane="best"/>
   <vehicle id="N2S_17" type="ego_car" route="N2S" depart="331" departSpeed="10" departLane="best"/>
   <vehicle id="hW2E_18" type="ego_car" route="W2E" depart="338" departSpeed="10" departLane="best"/>
   <vehicle id="hE2W_19" type="ego_car" route="E2W" depart="344" departSpeed="10" departLane="best"/>
   <vehicle id="W2E_20" type="ego_car" route="W2E" depart="347" departSpeed="10" departLane="best"/>
   <vehicle id="hN2S_21" type="ego_car" route="N2S" depart="348" departSpeed="10" departLane="best"/>
   <vehicle id="hE2W_22" type="ego_car" route="E2W" depart="348" departSpeed="10" departLane="best"/>
   <vehicle id="hN2S_23" type="ego_car" route="N2S" depart="354" departSpeed="10" departLane="best"/>
   <vehicle id="W2E_24" type="ego_car" route="W2E" depart="356" departSpeed="10" departLane="best"/>
   <vehicle id="hN2S_25" type="ego_car" route="N2S" depart="356" departSpeed="10" departLane="best"/>
   <vehicle id="hS2N_26" type="ego_car" route="S2N" depart="359" departSpeed="10" departLane="best"/>
   <vehicle id="E2W_27" type="ego_car" route="E2W" depart="360" departSpeed="10" departLane="best"/>
   <vehicle id="S2N_28" type="ego_car" route="S2N" depart="382" departSpeed="10" departLane="best"/>
   <vehicle id="hE2W_29" type="ego_car" route="E2W" depart="402" departSpeed="10" departLane="best"/>
   <vehicle id="hE2W_30" type="ego_car" route="E2W" depart="403" departSpeed="10" departLane="best"/>
   <vehicle id="hS2N_31" type="ego_car" route="S2N" depart="413" departSpeed="10" departLane="best"/>
   <vehicle id="hW2E_32" type="ego_car" route="W2E" depart="415" departSpeed="10" departLane="best"/>
   <vehicle id="hW2E_33" type="ego_car" route="W2E" depart="416" departSpeed="10" departLane="best"/>
   <vehicle id="hE2W_34" type="ego_car" route="E2W" depart="417" departSpeed="10" departLane="best"/>
   <vehicle id="hN2S_35" type="ego_car" route="N2S" depart="427" departSpeed="10" departLane="best"/>
   <vehicle id="hW2E_36" type="ego_car" route="W2E" depart="436" departSpeed="10" departLane="best"/>
   <vehicle id="hN2S_37" type="ego_car" route="N2S" depart="442" departSpeed="10" departLane="best"/>
   <vehicle id="hE2W_38" type="ego_car" route="E2W" depart="442" departSpeed="10" departLane="best"/>
   <vehicle id="hN2S_39" type="ego_car" route="N2S" depart="453" departSpeed="10" departLane="best"/>
   <vehicle id="hS2N_40" type="ego_car" route="S2N" depart="459" departSpeed="10" departLane="best"/>
   <vehicle id="hW2E_41" type="ego_car" route="W2E" depart="467" departSpeed="10" departLane="best"/>
   <vehicle id="N2S_42" type="ego_car" route="N2S" depart="478" departSpeed="10" departLane="best"/>
   <vehicle id="E2W_43" type="ego_car" route="E2W" depart="483" departSpeed="10" departLane="best"/>
   <vehicle id="hS2N_44" type="ego_car" route="S2N" depart="493" departSpeed="10" departLane="best"/>
   <vehicle id="W2E_45" type="ego_car" route="W2E" depart="508" departSpeed="10" departLane="best"/>
   <vehicle id="E2W_46" type="ego_car" route="E2W" depart="512" departSpeed="10" departLane="best"/>
   <vehicle id="N2S_47" type="ego_car" route="N2S" depart="514" departSpeed="10" departLane="best"/>
   <vehicle id="hW2E_48" type="ego_car" route="W2E" depart="520" departSpeed="10" departLane="best"/>
   <vehicle id="hS2N_49" type="ego_car" route="S2N" depart="528" departSpeed="10" departLane="best"/>
   <vehicle id="hW2E_50" type="ego_car" route="W2E" depart="529" departSpeed="10" departLane="best"/>
   <vehicle id="hN2S_51" type="ego_car" route="N2S" depart="532" departSpeed="10" departLane="best"/>
   <vehicle id="E2W_52" type="ego_car" route="E2W" depart="535" departSpeed="10" departLane="best"/>
   <vehicle id="hE2W_53" type="ego_car" route="E2W" depart="542" departSpeed="10" departLane="best"/>
   <vehicle id="hN2S_54" type="ego_car" route="N2S" depart="544" departSpeed="10" departLane="best"/>
   <vehicle id="hW2E_55" type="ego_car" route="W2E" depart="551" departSpeed="10" departLane="best"/>
   <vehicle id="hS2N_56" type="ego_car" route="S2N" depart="562" departSpeed="10" departLane="best"/>
   <vehicle id="N2S_57" type="ego_car" route="N2S" depart="573" departSpeed="10" departLane="best"/>
   <vehicle id="hN2S_58" type="ego_car" route="N2S" depart="580" departSpeed="10" departLane="best"/>
   <vehicle id="S2N_59" type="ego_car" route="S2N" depart="586" departSpeed="10" departLane="best"/>
   <vehicle id="hW2E_60" type="ego_car" route="W2E" depart="590" departSpeed="10" departLane="best"/>
   <vehicle id="hE2W_61" type="ego_car" route="E2W" depart="600" departSpeed="10" departLane="best"/>
   <vehicle id="hE2W_62" type="ego_car" route="E2W" depart="603" departSpeed="10" departLane="best"/>
   <vehicle id="hN2S_63" type="ego_car" route="N2S" depart="603" departSpeed="10" departLane="best"/>
   <vehicle id="hE2W_64" type="ego_car" route="E2W" depart="603" departSpeed="10" departLane="best"/>
   <vehicle id="hS2N_65" type="ego_car" route="S2N" depart="615" departSpeed="10" departLane="best"/>
   <vehicle id="hE2W_66" type="ego_car" route="E2W" depart="623" departSpeed="10" departLane="best"/>
   <vehicle id="S2N_67" type="ego_car" route="S2N" depart="632" departSpeed="10" departLane="best"/>
   <vehicle id="E2W_68" type="ego_car" route="E2W" depart="636" departSpeed="10" departLane="best"/>
   <vehicle id="hN2S_69" type="ego_car" route="N2S" depart="639" departSpeed="10" departLane="best"/>
   <vehicle id="hE2W_70" type="ego_car" route="E2W" depart="641" departSpeed="10" departLane="best"/>
   <vehicle id="W2E_71" type="ego_car" route="W2E" depart="653" departSpeed="10" departLane="best"/>
   <vehicle id="hN2S_72" type="ego_car" route="N2S" depart="653" departSpeed="10" departLane="best"/>
   <vehicle id="hN2S_73" type="ego_car" route="N2S" depart="657" departSpeed="10" departLane="best"/>
   <vehicle id="hW2E_74" type="ego_car" route="W2E" depart="671" departSpeed="10" departLane="best"/>
   <vehicle id="hW2E_75" type="ego_car" route="W2E" depart="682" departSpeed="10" departLane="best"/>
   <vehicle id="hN2S_76" type="ego_car" route="N2S" depart="685" departSpeed="10" departLane="best"/>
   <vehicle id="hN2S_77" type="ego_car" route="N2S" depart="694" departSpeed="10" departLane="best"/>
   <vehicle id="hS2N_78" type="ego_car" route="S2N" depart="710" departSpeed="10" departLane="best"/>
   <vehicle id="hN2S_79" type="ego_car" route="N2S" depart="712" departSpeed="10" departLane="best"/>
   <vehicle id="E2W_80" type="ego_car" route="E2W" depart="717" departSpeed="10" departLane="best"/>
   <vehicle id="hW2E_81" type="ego_car" route="W2E" depart="719" departSpeed="10" departLane="best"/>
   <vehicle id="hS2N_82" type="ego_car" route="S2N" depart="724" departSpeed="10" departLane="best"/>
   <vehicle id="hW2E_83" type="ego_car" route="W2E" depart="728" departSpeed="10" departLane="best"/>
   <vehicle id="hN2S_84" type="ego_car" route="N2S" depart="730" departSpeed="10" departLane="best"/>
   <vehicle id="hN2S_85" type="ego_car" route="N2S" depart="734" departSpeed="10" departLane="best"/>
   <vehicle id="W2E_86" type="ego_car" route="W2E" depart="738" departSpeed="10" departLane="best"/>
   <vehicle id="hN2S_87" type="ego_car" route="N2S" depart="742" departSpeed="10" departLane="best"/>
   <vehicle id="hN2S_88" type="ego_car" route="N2S" depart="742" departSpeed="10" departLane="best"/>
   <vehicle id="S2N_89" type="ego_car" route="S2N" depart="743" departSpeed="10" departLane="best"/>
   <vehicle id="S2N_90" type="ego_car" route="S2N" depart="750" departSpeed="10" departLane="best"/>
   <vehicle id="W2E_91" type="ego_car" route="W2E" depart="758" departSpeed="10" departLane="best"/>
   <vehicle id="hW2E_92" type="ego_car" route="W2E" depart="759" departSpeed="10" departLane="best"/>
   <vehicle id="hW2E_93" type="ego_car" route="W2E" depart="768" departSpeed="10" departLane="best"/>
   <vehicle id="hS2N_94" type="ego_car" route="S2N" depart="771" departSpeed="10" departLane="best"/>
   <vehicle id="W2E_95" type="ego_car" route="W2E" depart="774" departSpeed="10" departLane="best"/>
   <vehicle id="hN2S_96" type="ego_car" route="N2S" depart="787" departSpeed="10" departLane="best"/>
   <vehicle id="hE2W_97" type="ego_car" route="E2W" depart="792" departSpeed="10" departLane="best"/>
   <vehicle id="hE2W_98" type="ego_car" route="E2W" depart="798" departSpeed="10" departLane="best"/>
   <vehicle id="hW2E_99" type="ego_car" route="W2E" depart="798" departSpeed="10" departLane="best"/>
   <vehicle id="hN2S_100" type="ego_car" route="N2S" depart="805" departSpeed="10" departLane="best"/>
   <vehicle id="N2S_101" type="ego_car" route="N2S" depart="808" departSpeed="10" departLane="best"/>
   <vehicle id="hS2N_102" type="ego_car" route="S2N" depart="809" departSpeed="10" departLane="best"/>
   <vehicle id="hE2W_103" type="ego_car" route="E2W" depart="812" departSpeed="10" departLane="best"/>
   <vehicle id="hW2E_104" type="ego_car" route="W2E" depart="821" departSpeed="10" departLane="best"/>
   <vehicle id="hN2S_105" type="ego_car" route="N2S" depart="827" departSpeed="10" departLane="best"/>
   <vehicle id="hW2E_106" type="ego_car" route="W2E" depart="829" departSpeed="10" departLane="best"/>
   <vehicle id="W2E_107" type="ego_car" route="W2E" depart="839" departSpeed="10" departLane="best"/>
   <vehicle id="hW2E_108" type="ego_car" route="W2E" depart="841" departSpeed="10" departLane="best"/>
   <vehicle id="hW2E_109" type="ego_car" route="W2E" depart="848" departSpeed="10" departLane="best"/>
   <vehicle id="hE2W_110" type="ego_car" route="E2W" depart="857" departSpeed="10" departLane="best"/>
   <vehicle id="hN2S_111" type="ego_car" route="N2S" depart="861" departSpeed="10" departLane="best"/>
   <vehicle id="hW2E_112" type="ego_car" route="W2E" depart="864" departSpeed="10" departLane="best"/>
   <vehicle id="hS2N_113" type="ego_car" route="S2N" depart="865" departSpeed="10" departLane="best"/>
   <vehicle id="W2E_114" type="ego_car" route="W2E" depart="867" departSpeed="10" departLane="best"/>
   <vehicle id="hN2S_115" type="ego_car" route="N2S" depart="877" departSpeed="10" departLane="best"/>
   <vehicle id="hW2E_116" type="ego_car" route="W2E" depart="878" departSpeed="10" departLane="best"/>
   <vehicle id="hN2S_117" type="ego_car" route="N2S" depart="882" departSpeed="10" departLane="best"/>
   <vehicle id="hN2S_118" type="ego_car" route="N2S" depart="889" departSpeed="10" departLane="best"/>
   <vehicle id="hW2E_119" type="ego_car" route="W2E" depart="891" departSpeed="10" departLane="best"/>
   <vehicle id="W2E_120" type="ego_car" route="W2E" depart="900" departSpeed="10" departLane="best"/>
   <vehicle id="hS2N_121" type="ego_car" route="S2N" depart="905" departSpeed="10" departLane="best"/>
   <vehicle id="hS2N_122" type="ego_car" route="S2N" depart="909" departSpeed="10" departLane="best"/>
   <vehicle id="hE2W_123" type="ego_car" route="E2W" depart="909" departSpeed="10" departLane="best"/>
   <vehicle id="hS2N_124" type="ego_car" route="S2N" depart="912" departSpeed="10" departLane="best"/>
   <vehicle id="N2S_125" type="ego_car" route="N2S" depart="923" departSpeed="10" departLane="best"/>
   <vehicle id="hW2E_126" type="ego_car" route="W2E" depart="925" departSpeed="10" departLane="best"/>
   <vehicle id="W2E_127" type="ego_car" route="W2E" depart="927" departSpeed="10" departLane="best"/>
   <vehicle id="hW2E_128" type="ego_car" route="W2E" depart="933" departSpeed="10" departLane="best"/>
   <vehicle id="hN2S_129" type="ego_car" route="N2S" depart="934" departSpeed="10" departLane="best"/>
   <vehicle id="hS2N_130" type="ego_car" route="S2N" depart="943" departSpeed="10" departLane="best"/>
   <vehicle id="hW2E_131" type="ego_car" route="W2E" depart="947" departSpeed="10" departLane="best"/>
   <vehicle id="W2E_132" type="ego_car" route="W2E" depart="962" departSpeed="10" departLane="best"/>
   <vehicle id="hN2S_133" type="ego_car" route="N2S" depart="964" departSpeed="10" departLane="best"/>
   <vehicle id="hN2S_134" type="ego_car" route="N2S" depart="966" departSpeed="10" departLane="best"/>
   <vehicle id="W2E_135" type="ego_car" route="W2E" depart="969" departSpeed="10" departLane="best"/>
   <vehicle id="hS2N_136" type="ego_car" route="S2N" depart="970" departSpeed="10" departLane="best"/>
   <vehicle id="W2E_137" type="ego_car" route="W2E" depart="974" departSpeed="10" departLane="best"/>
   <vehicle id="hN2S_138" type="ego_car" route="N2S" depart="982" departSpeed="10" departLane="best"/>
   <vehicle id="hS2N_139" type="ego_car" route="S2N" depart="983" departSpeed="10" departLane="best"/>
   <vehicle id="N2S_140" type="ego_car" route="N2S" depart="991" departSpeed="10" departLane="best"/>
   <vehicle id="hN2S_141" type="ego_car" route="N2S" depart="991" departSpeed="10" departLane="best"/>
   <vehicle id="hE2W_142" type="ego_car" route="E2W" depart="997" departSpeed="10" departLane="best"/>
   <vehicle id="hN2S_143" type="ego_car" route="N2S" depart="998" departSpeed="10" departLane="best"/>
   <vehicle id="hE2W_144" type="ego_car" route="E2W" depart="1002" departSpeed="10" departLane="best"/>
   <vehicle id="hW2E_145" type="ego_car" route="W2E" depart="1007" departSpeed="10" departLane="best"/>
   <vehicle id="N2S_146" type="ego_car" route="N2S" depart="1012" departSpeed="10" departLane="best"/>
   <vehicle id="hW2E_147" type="ego_car" route="W2E" depart="1014" departSpeed="10" departLane="best"/>
   <vehicle id="hE2W_148" type="ego_car" route="E2W" depart="1023" departSpeed="10" departLane="best"/>
   <vehicle id="W2E_149" type="ego_car" route="W2E" depart="1024" departSpeed="10" departLane="best"/>
   <vehicle id="hN2S_150" type="ego_car" route="N2S" depart="1026" departSpeed="10" departLane="best"/>
   <vehicle id="hN2S_151" type="ego_car" route="N2S" depart="1030" departSpeed="10" departLane="best"/>
   <vehicle id="hS2N_152" type="ego_car" route="S2N" depart="1032" departSpeed="10" departLane="best"/>
   <vehicle id="hE2W_153" type="ego_car" route="E2W" depart="1032" departSpeed="10" departLane="best"/>
   <vehicle id="hN2S_154" type="ego_car" route="N2S" depart="1033" departSpeed="10" departLane="best"/>
   <vehicle id="N2S_155" type="ego_car" route="N2S" depart="1047" departSpeed="10" departLane="best"/>
   <vehicle id="N2S_156" type="ego_car" route="N2S" depart="1048" departSpeed="10" departLane="best"/>
   <vehicle id="hN2S_157" type="ego_car" route="N2S" depart="1051" departSpeed="10" departLane="best"/>
   <vehicle id="hN2S_158" type="ego_car" route="N2S" depart="1064" departSpeed="10" departLane="best"/>
   <vehicle id="W2E_159" type="ego_car" route="W2E" depart="1070" departSpeed="10" departLane="best"/>
   <vehicle id="N2S_160" type="ego_car" route="N2S" depart="1078" departSpeed="10" departLane="best"/>
   <vehicle id="W2E_161" type="ego_car" route="W2E" depart="1080" departSpeed="10" departLane="best"/>
   <vehicle id="hW2E_162" type="ego_car" route="W2E" depart="1096" departSpeed="10" departLane="best"/>
   <vehicle id="N2S_163" type="ego_car" route="N2S" depart="1099" departSpeed="10" departLane="best"/>
   <vehicle id="hN2S_164" type="ego_car" route="N2S" depart="1104" departSpeed="10" departLane="best"/>
   <vehicle id="hW2E_165" type="ego_car" route="W2E" depart="1106" departSpeed="10" departLane="best"/>
   <vehicle id="S2N_166" type="ego_car" route="S2N" depart="1109" departSpeed="10" departLane="best"/>
   <vehicle id="W2E_167" type="ego_car" route="W2E" depart="1112" departSpeed="10" departLane="best"/>
   <vehicle id="hW2E_168" type="ego_car" route="W2E" depart="1116" departSpeed="10" departLane="best"/>
   <vehicle id="W2E_169" type="ego_car" route="W2E" depart="1123" departSpeed="10" departLane="best"/>
   <vehicle id="N2S_170" type="ego_car" route="N2S" depart="1124" departSpeed="10" departLane="best"/>
   <vehicle id="hN2S_171" type="ego_car" route="N2S" depart="1125" departSpeed="10" departLane="best"/>
   <vehicle id="hN2S_172" type="ego_car" route="N2S" depart="1126" departSpeed="10" departLane="best"/>
   <vehicle id="hS2N_173" type="ego_car" route="S2N" depart="1128" departSpeed="10" departLane="best"/>
   <vehicle id="hS2N_174" type="ego_car" route="S2N" depart="1131" departSpeed="10" departLane="best"/>
   <vehicle id="hW2E_175" type="ego_car" route="W2E" depart="1140" departSpeed="10" departLane="best"/>
   <vehicle id="S2N_176" type="ego_car" route="S2N" depart="1142" departSpeed="10" departLane="best"/>
   <vehicle id="N2S_177" type="ego_car" route="N2S" depart="1142" departSpeed="10" departLane="best"/>
   <vehicle id="hS2N_178" type="ego_car" route="S2N" depart="1143" departSpeed="10" departLane="best"/>
   <vehicle id="hS2N_179" type="ego_car" route="S2N" depart="1151" departSpeed="10" departLane="best"/>
   <vehicle id="hS2N_180" type="ego_car" route="S2N" depart="1153" departSpeed="10" departLane="best"/>
   <vehicle id="hS2N_181" type="ego_car" route="S2N" depart="1158" departSpeed="10" departLane="best"/>
   <vehicle id="hN2S_182" type="ego_car" route="N2S" depart="1159" departSpeed="10" departLane="best"/>
   <vehicle id="hN2S_183" type="ego_car" route="N2S" depart="1164" departSpeed="10" departLane="best"/>
   <vehicle id="N2S_184" type="ego_car" route="N2S" depart="1177" departSpeed="10" departLane="best"/>
   <vehicle id="hE2W_185" type="ego_car" route="E2W" depart="1178" departSpeed="10" departLane="best"/>
   <vehicle id="hN2S_186" type="ego_car" route="N2S" depart="1180" departSpeed="10" departLane="best"/>
   <vehicle id="hN2S_187" type="ego_car" route="N2S" depart="1186" departSpeed="10" departLane="best"/>
   <vehicle id="E2W_188" type="ego_car" route="E2W" depart="1189" departSpeed="10" departLane="best"/>
   <vehicle id="W2E_189" type="ego_car" route="W2E" depart="1189" departSpeed="10" departLane="best"/>
   <vehicle id="hS2N_190" type="ego_car" route="S2N" depart="1190" departSpeed="10" departLane="best"/>
   <vehicle id="hN2S_191" type="ego_car" route="N2S" depart="1190" departSpeed="10" departLane="best"/>
   <vehicle id="hN2S_192" type="ego_car" route="N2S" depart="1190" departSpeed="10" departLane="best"/>
   <vehicle id="E2W_193" type="ego_car" route="E2W" depart="1191" departSpeed="10" departLane="best"/>
   <vehicle id="hN2S_194" type="ego_car" route="N2S" depart="1194" departSpeed="10" departLane="best"/>
   <vehicle id="hW2E_195" type="ego_car" route="W2E" depart="1195" departSpeed="10" departLane="best"/>
   <vehicle id="hW2E_196" type="ego_car" route="W2E" depart="1197" departSpeed="10" departLane="best"/>
   <vehicle id="hS2N_197" type="ego_car" route="S2N" depart="1203" departSpeed="10" departLane="best"/>
   <vehicle id="N2S_198" type="ego_car" route="N2S" depart="1204" departSpeed="10" departLane="best"/>
   <vehicle id="hE2W_199" type="ego_car" route="E2W" depart="1205" departSpeed="10" departLane="best"/>
   <vehicle id="hE2W_200" type="ego_car" route="E2W" depart="1220" departSpeed="10" departLane="best"/>
   <vehicle id="hS2N_201" type="ego_car" route="S2N" depart="1230" departSpeed="10" departLane="best"/>
   <vehicle id="hW2E_202" type="ego_car" route="W2E" depart="1234" departSpeed="10" departLane="best"/>
   <vehicle id="hE2W_203" type="ego_car" route="E2W" depart="1235" departSpeed="10" departLane="best"/>
   <vehicle id="E2W_204" type="ego_car" route="E2W" depart="1242" departSpeed="10" departLane="best"/>
   <vehicle id="hS2N_205" type="ego_car" route="S2N" depart="1244" departSpeed="10" departLane="best"/>
   <vehicle id="W2E_206" type="ego_car" route="W2E" depart="1254" departSpeed="10" departLane="best"/>
   <vehicle id="hW2E_207" type="ego_car" route="W2E" depart="1271" departSpeed="10" departLane="best"/>
   <vehicle id="W2E_208" type="ego_car" route="W2E" depart="1273" departSpeed="10" departLane="best"/>
   <vehicle id="hN2S_209" type="ego_car" route="N2S" depart="1273" departSpeed="10" departLane="best"/>
   <vehicle id="hW2E_210" type="ego_car" route="W2E" depart="1282" departSpeed="10" departLane="best"/>
   <vehicle id="hN2S_211" type="ego_car" route="N2S" depart="1283" departSpeed="10" departLane="best"/>
   <vehicle id="hN2S_212" type="ego_car" route="N2S" depart="1283" departSpeed="10" departLane="best"/>
   <vehicle id="hN2S_213" type="ego_car" route="N2S" depart="1289" departSpeed="10" departLane="best"/>
   <vehicle id="hE2W_214" type="ego_car" route="E2W" depart="1296" departSpeed="10" departLane="best"/>
   <vehicle id="hS2N_215" type="ego_car" route="S2N" depart="1297" departSpeed="10" departLane="best"/>
   <vehicle id="hW2E_216" type="ego_car" route="W2E" depart="1297" departSpeed="10" departLane="best"/>
   <vehicle id="hE2W_217" type="ego_car" route="E2W" depart="1303" departSpeed="10" departLane="best"/>
   <vehicle id="hS2N_218" type="ego_car" route="S2N" depart="1304" departSpeed="10" departLane="best"/>
   <vehicle id="W2E_219" type="ego_car" route="W2E" depart="1308" departSpeed="10" departLane="best"/>
   <vehicle id="hS2N_220" type="ego_car" route="S2N" depart="1320" departSpeed="10" departLane="best"/>
   <vehicle id="hW2E_221" type="ego_car" route="W2E" depart="1326" departSpeed="10" departLane="best"/>
   <vehicle id="hW2E_222" type="ego_car" route="W2E" depart="1328" departSpeed="10" departLane="best"/>
   <vehicle id="hW2E_223" type="ego_car" route="W2E" depart="1328" departSpeed="10" departLane="best"/>
   <vehicle id="hN2S_224" type="ego_car" route="N2S" depart="1329" departSpeed="10" departLane="best"/>
   <vehicle id="E2W_225" type="ego_car" route="E2W" depart="1345" departSpeed="10" departLane="best"/>
   <vehicle id="hE2W_226" type="ego_car" route="E2W" depart="1350" departSpeed="10" departLane="best"/>
   <vehicle id="hN2S_227" type="ego_car" route="N2S" depart="1355" departSpeed="10" departLane="best"/>
   <vehicle id="hW2E_228" type="ego_car" route="W2E" depart="1358" departSpeed="10" departLane="best"/>
   <vehicle id="S2N_229" type="ego_car" route="S2N" depart="1370" departSpeed="10" departLane="best"/>
   <vehicle id="hS2N_230" type="ego_car" route="S2N" depart="1373" departSpeed="10" departLane="best"/>
   <vehicle id="N2S_231" type="ego_car" route="N2S" depart="1377" departSpeed="10" departLane="best"/>
   <vehicle id="E2W_232" type="ego_car" route="E2W" depart="1381" departSpeed="10" departLane="best"/>
   <vehicle id="hE2W_233" type="ego_car" route="E2W" depart="1381" departSpeed="10" departLane="best"/>
   <vehicle id="hN2S_234" type="ego_car" route="N2S" depart="1381" departSpeed="10" departLane="best"/>
   <vehicle id="S2N_235" type="ego_car" route="S2N" depart="1385" departSpeed="10" departLane="best"/>
   <vehicle id="N2S_236" type="ego_car" route="N2S" depart="1385" departSpeed="10" departLane="best"/>
   <vehicle id="hE2W_237" type="ego_car" route="E2W" depart="1386" departSpeed="10" departLane="best"/>
   <vehicle id="E2W_238" type="ego_car" route="E2W" depart="1390" departSpeed="10" departLane="best"/>
   <vehicle id="hW2E_239" type="ego_car" route="W2E" depart="1408" departSpeed="10" departLane="best"/>
   <vehicle id="hS2N_240" type="ego_car" route="S2N" depart="1414" departSpeed="10" departLane="best"/>
   <vehicle id="hW2E_241" type="ego_car" route="W2E" depart="1414" departSpeed="10" departLane="best"/>
   <vehicle id="hN2S_242" type="ego_car" route="N2S" depart="1414" departSpeed="10" departLane="best"/>
   <vehicle id="hE2W_243" type="ego_car" route="E2W" depart="1417" departSpeed="10" departLane="best"/>
   <vehicle id="hW2E_244" type="ego_car" route="W2E" depart="1418" departSpeed="10" departLane="best"/>
   <vehicle id="N2S_245" type="ego_car" route="N2S" depart="1429" departSpeed="10" departLane="best"/>
   <vehicle id="hW2E_246" type="ego_car" route="W2E" depart="1431" departSpeed="10" departLane="best"/>
   <vehicle id="W2E_247" type="ego_car" route="W2E" depart="1431" departSpeed="10" departLane="best"/>
   <vehicle id="hE2W_248" type="ego_car" route="E2W" depart="1432" departSpeed="10" departLane="best"/>
   <vehicle id="hW2E_249" type="ego_car" route="W2E" depart="1433" departSpeed="10" departLane="best"/>
   <vehicle id="hE2W_250" type="ego_car" route="E2W" depart="1439" departSpeed="10" departLane="best"/>
   <vehicle id="hN2S_251" type="ego_car" route="N2S" depart="1439" departSpeed="10" departLane="best"/>
   <vehicle id="hE2W_252" type="ego_car" route="E2W" depart="1444" departSpeed="10" departLane="best"/>
   <vehicle id="E2W_253" type="ego_car" route="E2W" depart="1466" departSpeed="10" departLane="best"/>
   <vehicle id="hS2N_254" type="ego_car" route="S2N" depart="1471" departSpeed="10" departLane="best"/>
   <vehicle id="hE2W_255" type="ego_car" route="E2W" depart="1476" departSpeed="10" departLane="best"/>
   <vehicle id="hN2S_256" type="ego_car" route="N2S" depart="1486" departSpeed="10" departLane="best"/>
   <vehicle id="W2E_257" type="ego_car" route="W2E" depart="1494" departSpeed="10" departLane="best"/>
   <vehicle id="S2N_258" type="ego_car" route="S2N" depart="1496" departSpeed="10" departLane="best"/>
   <vehicle id="hS2N_259" type="ego_car" route="S2N" depart="1496" departSpeed="10" departLane="best"/>
   <vehicle id="hW2E_260" type="ego_car" route="W2E" depart="1497" departSpeed="10" departLane="best"/>
   <vehicle id="hS2N_261" type="ego_car" route="S2N" depart="1501" departSpeed="10" departLane="best"/>
   <vehicle id="hS2N_262" type="ego_car" route="S2N" depart="1501" departSpeed="10" departLane="best"/>
   <vehicle id="hN2S_263" type="ego_car" route="N2S" depart="1503" departSpeed="10" departLane="best"/>
   <vehicle id="S2N_264" type="ego_car" route="S2N" depart="1506" departSpeed="10" departLane="best"/>
   <vehicle id="hN2S_265" type="ego_car" route="N2S" depart="1507" departSpeed="10" departLane="best"/>
   <vehicle id="hN2S_266" type="ego_car" route="N2S" depart="1510" departSpeed="10" departLane="best"/>
   <vehicle id="hN2S_267" type="ego_car" route="N2S" depart="1517" departSpeed="10" departLane="best"/>
   <vehicle id="hS2N_268" type="ego_car" route="S2N" depart="1524" departSpeed="10" departLane="best"/>
   <vehicle id="hE2W_269" type="ego_car" route="E2W" depart="1539" departSpeed="10" departLane="best"/>
   <vehicle id="E2W_270" type="ego_car" route="E2W" depart="1546" departSpeed="10" departLane="best"/>
   <vehicle id="hN2S_271" type="ego_car" route="N2S" depart="1556" departSpeed="10" departLane="best"/>
   <vehicle id="hE2W_272" type="ego_car" route="E2W" depart="1585" departSpeed="10" departLane="best"/>
   <vehicle id="hS2N_273" type="ego_car" route="S2N" depart="1587" departSpeed="10" departLane="best"/>
   <vehicle id="hW2E_274" type="ego_car" route="W2E" depart="1590" departSpeed="10" departLane="best"/>
   <vehicle id="E2W_275" type="ego_car" route="E2W" depart="1595" departSpeed="10" departLane="best"/>
   <vehicle id="W2E_276" type="ego_car" route="W2E" depart="1600" departSpeed="10" departLane="best"/>
   <vehicle id="W2E_277" type="ego_car" route="W2E" depart="1602" departSpeed="10" departLane="best"/>
   <vehicle id="hW2E_278" type="ego_car" route="W2E" depart="1614" departSpeed="10" departLane="best"/>
   <vehicle id="hE2W_279" type="ego_car" route="E2W" depart="1626" departSpeed="10" departLane="best"/>
   <vehicle id="hE2W_280" type="ego_car" route="E2W" depart="1627" departSpeed="10" departLane="best"/>
   <vehicle id="hN2S_281" type="ego_car" route="N2S" depart="1638" departSpeed="10" departLane="best"/>
   <vehicle id="S2N_282" type="ego_car" route="S2N" depart="1641" departSpeed="10" departLane="best"/>
   <vehicle id="hS2N_283" type="ego_car" route="S2N" depart="1652" departSpeed="10" departLane="best"/>
   <vehicle id="hS2N_284" type="ego_car" route="S2N" depart="1660" departSpeed="10" departLane="best"/>
   <vehicle id="hW2E_285" type="ego_car" route="W2E" depart="1665" departSpeed="10" departLane="best"/>
   <vehicle id="hE2W_286" type="ego_car" route="E2W" depart="1678" departSpeed="10" departLane="best"/>
   <vehicle id="hS2N_287" type="ego_car" route="S2N" depart="1684" departSpeed="10" departLane="best"/>