<routes>

        <vType id = 'ego_car' vclass="evehicle" emissionClass="Energy" tau="1.5" accel="3.0" decel="3.0" color="#00FFFF" sigma="0.2" length="4.90" minGap="1.0" maxSpeed="20" carFollowing="IDM" guiShape="passenger"/>

        <route id="N2S" edges="NS -SN"/>
        <route id="S2N" edges="SN -NS"/>
        <route id="W2E" edges="WE -EW"/>
        <route id="E2W" edges="EW -WE"/>
   <vehicle id="hE2W_1" type="ego_car" route="E2W" depart="51" departSpeed="10" departLane="best"/>
   <vehicle id="N2S_2" type="ego_car" route="N2S" depart="65" departSpeed="10" departLane="best"/>
   <vehicle id="hE2W_3" type="ego_car" route="E2W" depart="136" departSpeed="10" departLane="best"/>
   <vehicle id="S2N_4" type="ego_car" route="S2N" depart="139" departSpeed="10" departLane="best"/>
   <vehicle id="hE2W_5" type="ego_car" route="E2W" depart="142" departSpeed="10" departLane="best"/>
   <vehicle id="hS2N_6" type="ego_car" route="S2N" depart="146" departSpeed="10" departLane="best"/>
   <vehicle id="hE2W_7" type="ego_car" route="E2W" depart="179" departSpeed="10" departLane="best"/>
   <vehicle id="N2S_8" type="ego_car" route="N2S" depart="185" departSpeed="10" departLane="best"/>
   <vehicle id="hN2S_9" type="ego_car" route="N2S" depart="186" departSpeed="10" departLane="best"/>
   <vehicle id="S2N_10" type="ego_car" route="S2N" depart="198" departSpeed="10" departLane="best"/>
   <vehicle id="S2N_11" type="ego_car" route="S2N" depart="204" departSpeed="10" departLane="best"/>
   <vehicle id="hN2S_12" type="ego_car" route="N2S" depart="235" departSpeed="10" departLane="best"/>
   <vehicle id="W2E_13" type="ego_car" route="W2E" depart="252" departSpeed="10" departLane="best"/>
   <vehicle id="N2S_14" type="ego_car" route="N2S" depart="260" departSpeed="10" departLane="best"/>
   <vehicle id="hE2W_15" type="ego_car" route="E2W" depart="265" departSpeed="10" departLane="best"/>
   <vehicle id="hW2E_16" type="ego_car" route="W2E" depart="271" departSpeed="10" departLane="best"/>
   <vehicle id="W2E_17" type="ego_car" route="W2E" depart="283" departSpeed="10" departLane="best"/>
   <vehicle id="hS2N_18" type="ego_car" route="S2N" depart="283" departSpeed="10" departLane="best"/>
   <vehicle id="hW2E_19" type="ego_car" route="W2E" depart="299" departSpeed="10" departLane="best"/>
   <vehicle id="W2E_20" type="ego_car" route="W2E" depart="301" departSpeed="10" departLane="best"/>
   <vehicle id="hE2W_21" type="ego_car" route="E2W" depart="308" departSpeed="10" departLane="best"/>
   <vehicle id="hE2W_22" type="ego_car" route="E2W" depart="311" departSpeed="10" departLane="best"/>
   <vehicle id="hE2W_23" type="ego_car" route="E2W" depart="319" departSpeed="10" departLane="best"/>
   <vehicle id="W2E_24" type="ego_car" route="W2E" depart="324" departSpeed="10" departLane="best"/>
   <vehicle id="hW2E_25" type="ego_car" route="W2E" depart="325" departSpeed="10" departLane="best"/>
   <vehicle id="hN2S_26" type="ego_car" route="N2S" depart="328" departSpeed="10" departLane="best"/>
   <vehicle id="E2W_27" type="ego_car" route="E2W" depart="328" departSpeed="10" departLane="best"/>
   <vehicle id="N2S_28" type="ego_car" route="N2S" depart="354" departSpeed="10" departLane="best"/>
   <vehicle id="hS2N_29" type="ego_car" route="S2N" depart="359" departSpeed="10" departLane="best"/>
   <vehicle id="hW2E_30" type="ego_car" route="W2E" depart="364" departSpeed="10" departLane="best"/>
   <vehicle id="hW2E_31" type="ego_car" route="W2E" depart="369" departSpeed="10" departLane="best"/>
   <vehicle id="hE2W_32" type="ego_car" route="E2W" depart="372" departSpeed="10" departLane="best"/>
   <vehicle id="hW2E_33" type="ego_car" route="W2E" depart="377" departSpeed="10" departLane="best"/>
   <vehicle id="hE2W_34" type="ego_car" route="E2W" depart="382" departSpeed="10" departLane="best"/>
   <vehicle id="hE2W_35" type="ego_car" route="E2W" depart="386" departSpeed="10" departLane="best"/>
   <vehicle id="hS2N_36" type="ego_car" route="S2N" depart="387" departSpeed="10" departLane="best"/>
   <vehicle id="hS2N_37" type="ego_car" route="S2N" depart="389" departSpeed="10" departLane="best"/>
   <vehicle id="hN2S_38" type="ego_car" route="N2S" depart="390" departSpeed="10" departLane="best"/>
   <vehicle id="hE2W_39" type="ego_car" route="E2W" depart="393" departSpeed="10" departLane="best"/>
   <vehicle id="hS2N_40" type="ego_car" route="S2N" depart="394" departSpeed="10" departLane="best"/>
   <vehicle id="hE2W_41" type="ego_car" route="E2W" depart="396" departSpeed="10" departLane="best"/>
   <vehicle id="W2E_42" type="ego_car" route="W2E" depart="398" departSpeed="10" departLane="best"/>
   <vehicle id="E2W_43" type="ego_car" route="E2W" depart="398" departSpeed="10" departLane="best"/>
   <vehicle id="hS2N_44" type="ego_car" route="S2N" depart="403" departSpeed="10" departLane="best"/>
   <vehicle id="W2E_45" type="ego_car" route="W2E" depart="411" departSpeed="10" departLane="best"/>
   <vehicle id="S2N_46" type="ego_car" route="S2N" depart="416" departSpeed="10" departLane="best"/>
   <vehicle id="N2S_47" type="ego_car" route="N2S" depart="418" departSpeed="10" departLane="best"/>
   <vehicle id="hS2N_48" type="ego_car" route="S2N" depart="419" departSpeed="10" departLane="best"/>
   <vehicle id="hW2E_49" type="ego_car" route="W2E" depart="424" departSpeed="10" departLane="best"/>
   <vehicle id="hW2E_50" type="ego_car" route="W2E" depart="429" departSpeed="10" departLane="best"/>
   <vehicle id="hN2S_51" type="ego_car" route="N2S" depart="439" departSpeed="10" departLane="best"/>
   <vehicle id="N2S_52" type="ego_car" route="N2S" depart="440" departSpeed="10" departLane="best"/>
   <vehicle id="hN2S_53" type="ego_car" route="N2S" depart="447" departSpeed="10" departLane="best"/>
   <vehicle id="hS2N_54" type="ego_car" route="S2N" depart="447" departSpeed="10" departLane="best"/>
   <vehicle id="hS2N_55" type="ego_car" route="S2N" depart="461" departSpeed="10" departLane="best"/>
   <vehicle id="hS2N_56" type="ego_car" route="S2N" depart="467" departSpeed="10" departLane="best"/>
   <vehicle id="W2E_57" type="ego_car" route="W2E" depart="467" departSpeed="10" departLane="best"/>
   <vehicle id="hW2E_58" type="ego_car" route="W2E" depart="476" departSpeed="10" departLane="best"/>
   <vehicle id="N2S_59" type="ego_car" route="N2S" depart="484" departSpeed="10" departLane="best"/>
   <vehicle id="hN2S_60" type="ego_car" route="N2S" depart="484" departSpeed="10" departLane="best"/>
   <vehicle id="hS2N_61" type="ego_car" route="S2N" depart="484" departSpeed="10" departLane="best"/>
   <vehicle id="hS2N_62" type="ego_car" route="S2N" depart="484" departSpeed="10" departLane="best"/>
   <vehicle id="hS2N_63" type="ego_car" route="S2N" depart="486" departSpeed="10" departLane="best"/>
   <vehicle id="hE2W_64" type="ego_car" route="E2W" depart="496" departSpeed="10" departLane="best"/>
   <vehicle id="hS2N_65" type="ego_car" route="S2N" depart="497" departSpeed="10" departLane="best"/>
   <vehicle id="hS2N_66" type="ego_car" route="S2N" depart="500" departSpeed="10" departLane="best"/>
   <vehicle id="W2E_67" type="ego_car" route="W2E" depart="503" departSpeed="10" departLane="best"/>
   <vehicle id="E2W_68" type="ego_car" route="E2W" depart="503" departSpeed="10" departLane="best"/>
   <vehicle id="hS2N_69" type="ego_car" route="S2N" depart="506" departSpeed="10" departLane="best"/>
   <vehicle id="hS2N_70" type="ego_car" route="S2N" depart="507" departSpeed="10" departLane="best"/>
   <vehicle id="S2N_71" type="ego_car" route="S2N" depart="509" departSpeed="10" departLane="best"/>
   <vehicle id="hE2W_72" type="ego_car" route="E2W" depart="512" departSpeed="10" departLane="best"/>
   <vehicle id="hN2S_73" type="ego_car" route="N2S" depart="513" departSpeed="10" departLane="best"/>
   <vehicle id="hS2N_74" type="ego_car" route="S2N" depart="516" departSpeed="10" departLane="best"/>
   <vehicle id="hE2W_75" type="ego_car" route="E2W" depart="528" departSpeed="10" departLane="best"/>
   <vehicle id="hE2W_76" type="ego_car" route="E2W" depart="529" departSpeed="10" departLane="best"/>
   <vehicle id="hW2E_77" type="ego_car" route="W2E" depart="530" departSpeed="10" departLane="best"/>
   <vehicle id="hW2E_78" type="ego_car" route="W2E" depart="538" departSpeed="10" departLane="best"/>
   <vehicle id="hE2W_79" type="ego_car" route="E2W" depart="539" departSpeed="10" departLane="best"/>
   <vehicle id="S2N_80" type="ego_car" route="S2N" depart="539" departSpeed="10" departLane="best"/>
   <vehicle id="hW2E_81" type="ego_car" route="W2E" depart="540" departSpeed="10" departLane="best"/>
   <vehicle id="hN2S_82" type="ego_car" route="N2S" depart="541" departSpeed="10" departLane="best"/>
   <vehicle id="hE2W_83" type="ego_car" route="E2W" depart="541" departSpeed="10" departLane="best"/>
   <vehicle id="hW2E_84" type="ego_car" route="W2E" depart="545" departSpeed="10" departLane="best"/>
   <vehicle id="hS2N_85" type="ego_car" route="S2N" depart="545" departSpeed="10" departLane="best"/>
   <vehicle id="S2N_86" type="ego_car" route="S2N" depart="547" departSpeed="10" departLane="best"/>
   <vehicle id="hE2W_87" type="ego_car" route="E2W" depart="548" departSpeed="10" departLane="best"/>
   <vehicle id="hW2E_88" type="ego_car" route="W2E" depart="556" departSpeed="10" departLane="best"/>
   <vehicle id="S2N_89" type="ego_car" route="S2N" depart="556" departSpeed="10" departLane="best"/>
   <vehicle id="N2S_90" type="ego_car" route="N2S" depart="560" departSpeed="10" departLane="best"/>
   <vehicle id="S2N_91" type="ego_car" route="S2N" depart="562" departSpeed="10" departLane="best"/>
   <vehicle id="hE2W_92" type="ego_car" route="E2W" depart="563" departSpeed="10" departLane="best"/>
   <vehicle id="hS2N_93" type="ego_car" route="S2N" depart="563" departSpeed="10" departLane="best"/>
   <vehicle id="hW2E_94" type="ego_car" route="W2E" depart="565" departSpeed="10" departLane="best"/>
   <vehicle id="S2N_95" type="ego_car" route="S2N" depart="571" departSpeed="10" departLane="best"/>
   <vehicle id="hE2W_96" type="ego_car" route="E2W" depart="579" departSpeed="10" departLane="best"/>
   <vehicle id="hW2E_97" type="ego_car" route="W2E" depart="580" departSpeed="10" departLane="best"/>
   <vehicle id="hN2S_98" type="ego_car" route="N2S" depart="582" departSpeed="10" departLane="best"/>
   <vehicle id="hE2W_99" type="ego_car" route="E2W" depart="582" departSpeed="10" departLane="best"/>
   <vehicle id="hS2N_100" type="ego_car" route="S2N" depart="583" departSpeed="10" departLane="best"/>
   <vehicle id="E2W_101" type="ego_car" route="E2W" depart="584" departSpeed="10" departLane="best"/>
   <vehicle id="hS2N_102" type="ego_car" route="S2N" depart="585" departSpeed="10" departLane="best"/>
   <vehicle id="hN2S_103" type="ego_car" route="N2S" depart="590" departSpeed="10" departLane="best"/>
   <vehicle id="hE2W_104" type="ego_car" route="E2W" depart="600" departSpeed="10" departLane="best"/>
   <vehicle id="hW2E_105" type="ego_car" route="W2E" depart="605" departSpeed="10" departLane="best"/>
   <vehicle id="hS2N_106" type="ego_car" route="S2N" depart="605" departSpeed="10" departLane="best"/>
   <vehicle id="S2N_107" type="ego_car" route="S2N" depart="608" departSpeed="10" departLane="best"/>
   <vehicle id="hW2E_108" type="ego_car" route="W2E" depart="613" departSpeed="10" departLane="best"/>
   <vehicle id="hE2W_109" type="ego_car" route="E2W" depart="613" departSpeed="10" departLane="best"/>
   <vehicle id="hW2E_110" type="ego_car" route="W2E" depart="622" departSpeed="10" departLane="best"/>
   <vehicle id="hS2N_111" type="ego_car" route="S2N" depart="625" departSpeed="10" departLane="best"/>
   <vehicle id="hW2E_112" type="ego_car" route="W2E" depart="629" departSpeed="10" departLane="best"/>
   <vehicle id="hE2W_113" type="ego_car" route="E2W" depart="631" departSpeed="10" departLane="best"/>
   <vehicle id="E2W_114" type="ego_car" route="E2W" depart="635" departSpeed="10" departLane="best"/>
   <vehicle id="hS2N_115" type="ego_car" route="S2N" depart="640" departSpeed="10" departLane="best"/>
   <vehicle id="hW2E_116" type="ego_car" route="W2E" depart="642" departSpeed="10" departLane="best"/>
   <vehicle id="hW2E_117" type="ego_car" route="W2E" depart="648" departSpeed="10" departLane="best"/>
   <vehicle id="hW2E_118" type="ego_car" route="W2E" depart="650" departSpeed="10" departLane="best"/>
   <vehicle id="hE2W_119" type="ego_car" route="E2W" depart="656" departSpeed="10" departLane="best"/>
   <vehicle id="N2S_120" type="ego_car" route="N2S" depart="662" departSpeed="10" departLane="best"/>
   <vehicle id="hE2W_121" type="ego_car" route="E2W" depart="662" departSpeed="10" departLane="best"/>
   <vehicle id="hE2W_122" type="ego_car" route="E2W" depart="672" departSpeed="10" departLane="best"/>
   <vehicle id="hW2E_123" type="ego_car" route="W2E" depart="680" departSpeed="10" departLane="best"/>
   <vehicle id="hE2W_124" type="ego_car" route="E2W" depart="683" departSpeed="10" departLane="best"/>
   <vehicle id="S2N_125" type="ego_car" route="S2N" depart="683" departSpeed="10" departLane="best"/>
   <vehicle id="hS2N_126" type="ego_car" route="S2N" depart="692" departSpeed="10" departLane="best"/>
   <vehicle id="S2N_127" type="ego_car" route="S2N" depart="701" departSpeed="10" departLane="best"/>
   <vehicle id="hW2E_128" type="ego_car" route="W2E" depart="704" departSpeed="10" departLane="best"/>
   <vehicle id="hN2S_129" type="ego_car" route="N2S" depart="711" departSpeed="10" departLane="best"/>
   <vehicle id="hN2S_130" type="ego_car" route="N2S" depart="712" departSpeed="10" departLane="best"/>
   <vehicle id="hN2S_131" type="ego_car" route="N2S" depart="714" departSpeed="10" departLane="best"/>
   <vehicle id="W2E_132" type="ego_car" route="W2E" depart="731" departSpeed="10" departLane="best"/>
   <vehicle id="hN2S_133" type="ego_car" route="N2S" depart="732" departSpeed="10" departLane="best"/>
   <vehicle id="hS2N_134" type="ego_car" route="S2N" depart="733" departSpeed="10" departLane="best"/>
   <vehicle id="N2S_135" type="ego_car" route="N2S" depart="735" departSpeed="10" departLane="best"/>
   <vehicle id="hE2W_136" type="ego_car" route="E2W" depart="735" departSpeed="10" departLane="best"/>
   <vehicle id="E2W_137" type="ego_car" route="E2W" depart="735" departSpeed="10" departLane="best"/>
   <vehicle id="hE2W_138" type="ego_car" route="E2W" depart="739" departSpeed="10" departLane="best"/>
   <vehicle id="hE2W_139" type="ego_car" route="E2W" depart="742" departSpeed="10" departLane="best"/>
   <vehicle id="S2N_140" type="ego_car" route="S2N" depart="746" departSpeed="10" departLane="best"/>
   <vehicle id="hE2W_141" type="ego_car" route="E2W" depart="748" departSpeed="10" departLane="best"/>
   <vehicle id="hW2E_142" type="ego_car" route="W2E" depart="759" departSpeed="10" departLane="best"/>
   <vehicle id="hE2W_143" type="ego_car" route="E2W" depart="763" departSpeed="10" departLane="best"/>
   <vehicle id="hS2N_144" type="ego_car" route="S2N" depart="767" departSpeed="10" departLane="best"/>
   <vehicle id="hW2E_145" type="ego_car" route="W2E" depart="773" departSpeed="10" departLane="best"/>
   <vehicle id="S2N_146" type="ego_car" route="S2N" depart="776" departSpeed="10" departLane="best"/>
   <vehicle id="hN2S_147" type="ego_car" route="N2S" depart="779" departSpeed="10" departLane="best"/>
   <vehicle id="hW2E_148" type="ego_car" route="W2E" depart="783" departSpeed="10" departLane="best"/>
   <vehicle id="S2N_149" type="ego_car" route="S2N" depart="785" departSpeed="10" departLane="best"/>
   <vehicle id="hE2W_150" type="ego_car" route="E2W" depart="786" departSpeed="10" departLane="best"/>
   <vehicle id="hS2N_151" type="ego_car" route="S2N" depart="786" departSpeed="10" departLane="best"/>
   <vehicle id="hN2S_152" type="ego_car" route="N2S" depart="788" departSpeed="10" departLane="best"/>
   <vehicle id="hN2S_153" type="ego_car" route="N2S" depart="791" departSpeed="10" departLane="best"/>
   <vehicle id="hE2W_154" type="ego_car" route="E2W" depart="792" departSpeed="10" departLane="best"/>
   <vehicle id="S2N_155" type="ego_car" route="S2N" depart="793" departSpeed="10" departLane="best"/>
   <vehicle id="W2E_156" type="ego_car" route="W2E" depart="794" departSpeed="10" departLane="best"/>
   <vehicle id="hE2W_157" type="ego_car" route="E2W" depart="795" departSpeed="10" departLane="best"/>
   <vehicle id="hN2S_158" type="ego_car" route="N2S" depart="798" departSpeed="10" departLane="best"/>
   <vehicle id="W2E_159" type="ego_car" route="W2E" depart="803" departSpeed="10" departLane="best"/>
   <vehicle id="E2W_160" type="ego_car" route="E2W" depart="808" departSpeed="10" departLane="best"/>
   <vehicle id="S2N_161" type="ego_car" route="S2N" depart="810" departSpeed="10" departLane="best"/>
   <vehicle id="hE2W_162" type="ego_car" route="E2W" depart="812" departSpeed="10" departLane="best"/>
   <vehicle id="W2E_163" type="ego_car" route="W2E" depart="819" departSpeed="10" departLane="best"/>
   <vehicle id="hW2E_164" type="ego_car" route="W2E" depart="828" departSpeed="10" departLane="best"/>
   <vehicle id="hN2S_165" type="ego_car" route="N2S" depart="832" departSpeed="10" departLane="best"/>
   <vehicle id="S2N_166" type="ego_car" route="S2N" depart="833" departSpeed="10" departLane="best"/>
   <vehicle id="W2E_167" type="ego_car" route="W2E" depart="837" departSpeed="10" departLane="best"/>
   <vehicle id="hS2N_168" type="ego_car" route="S2N" depart="839" departSpeed="10" departLane="best"/>
   <vehicle id="S2N_169" type="ego_car" route="S2N" depart="843" departSpeed="10" departLane="best"/>
   <vehicle id="N2S_170" type="ego_car" route="N2S" depart="847" departSpeed="10" departLane="best"/>
   <vehicle id="hN2S_171" type="ego_car" route="N2S" depart="848" departSpeed="10" departLane="best"/>
   <vehicle id="hN2S_172" type="ego_car" route="N2S" depart="848" departSpeed="10" departLane="best"/>
   <vehicle id="hS2N_173" type="ego_car" route="S2N" depart="850" departSpeed="10" departLane="best"/>
   <vehicle id="hN2S_174" type="ego_car" route="N2S" depart="853" departSpeed="10" departLane="best"/>
   <vehicle id="hW2E_175" type="ego_car" route="W2E" depart="858" departSpeed="10" departLane="best"/>
   <vehicle id="S2N_176" type="ego_car" route="S2N" depart="865" departSpeed="10" departLane="best"/>
   <vehicle id="N2S_177" type="ego_car" route="N2S" depart="868" departSpeed="10" departLane="best"/>
   <vehicle id="hE2W_178" type="ego_car" route="E2W" depart="874" departSpeed="10" departLane="best"/>
   <vehicle id="hN2S_179" type="ego_car" route="N2S" depart="878" departSpeed="10" departLane="best"/>
   <vehicle id="hW2E_180" type="ego_car" route="W2E" depart="879" departSpeed="10" departLane="best"/>
   <vehicle id="hW2E_181" type="ego_car" route="W2E" depart="880" departSpeed="10" departLane="best"/>
   <vehicle id="hN2S_182" type="ego_car" route="N2S" depart="894" departSpeed="10" departLane="best"/>
   <vehicle id="hE2W_183" type="ego_car" route="E2W" depart="901" departSpeed="10" departLane="best"/>
   <vehicle id="W2E_184" type="ego_car" route="W2E" depart="905" departSpeed="10" departLane="best"/>
   <vehicle id="hS2N_185" type="ego_car" route="S2N" depart="909" departSpeed="10" departLane="best"/>
   <vehicle id="hS2N_186" type="ego_car" route="S2N" depart="909" departSpeed="10" departLane="best"/>
   <vehicle id="hW2E_187" type="ego_car" route="W2E" depart="911" departSpeed="10" departLane="best"/>
   <vehicle id="N2S_188" type="ego_car" route="N2S" depart="923" departSpeed="10" departLane="best"/>
   <vehicle id="W2E_189" type="ego_car" route="W2E" depart="929" departSpeed="10" departLane="best"/>
   <vehicle id="hE2W_190" type="ego_car" route="E2W" depart="936" departSpeed="10" departLane="best"/>
   <vehicle id="hS2N_191" type="ego_car" route="S2N" depart="936" departSpeed="10" departLane="best"/>
   <vehicle id="hS2N_192" type="ego_car" route="S2N" depart="942" departSpeed="10" departLane="best"/>
   <vehicle id="N2S_193" type="ego_car" route="N2S" depart="944" departSpeed="10" departLane="best"/>
   <vehicle id="hW2E_194" type="ego_car" route="W2E" depart="946" departSpeed="10" departLane="best"/>
   <vehicle id="hN2S_195" type="ego_car" route="N2S" depart="950" departSpeed="10" departLane="best"/>
   <vehicle id="hE2W_196" type="ego_car" route="E2W" depart="950" departSpeed="10" departLane="best"/>
   <vehicle id="hS2N_197" type="ego_car" route="S2N" depart="952" departSpeed="10" departLane="best"/>
   <vehicle id="W2E_198" type="ego_car" route="W2E" depart="956" departSpeed="10" departLane="best"/>
   <vehicle id="hS2N_199" type="ego_car" route="S2N" depart="963" departSpeed="10" departLane="best"/>
   <vehicle id="hE2W_200" type="ego_car" route="E2W" depart="966" departSpeed="10" departLane="best"/>
   <vehicle id="hN2S_201" type="ego_car" route="N2S" depart="968" departSpeed="10" departLane="best"/>
   <vehicle id="hS2N_202" type="ego_car" route="S2N" depart="970" departSpeed="10" departLane="best"/>
   <vehicle id="hE2W_203" type="ego_car" route="E2W" depart="975" departSpeed="10" departLane="best"/>
   <vehicle id="W2E_204" type="ego_car" route="W2E" depart="978" departSpeed="10" departLane="best"/>
   <vehicle id="hN2S_205" type="ego_car" route="N2S" depart="980" departSpeed="10" departLane="best"/>
   <vehicle id="E2W_206" type="ego_car" route="E2W" depart="983" departSpeed="10" departLane="best"/>
   <vehicle id="hW2E_207" type="ego_car" route="W2E" depart="989" departSpeed="10" departLane="best"/>
   <vehicle id="E2W_208" type="ego_car" route="E2W" depart="991" departSpeed="10" departLane="best"/>
   <vehicle id="hW2E_209" type="ego_car" route="W2E" depart="995" departSpeed="10" departLane="best"/>
   <vehicle id="hS2N_210" type="ego_car" route="S2N" depart="1001" departSpeed="10" departLane="best"/>
   <vehicle id="hS2N_211" type="ego_car" route="S2N" depart="1001" departSpeed="10" departLane="best"/>
   <vehicle id="hN2S_212" type="ego_car" route="N2S" depart="1009" departSpeed="10" departLane="best"/>
   <vehicle id="hN2S_213" type="ego_car" route="N2S" depart="1016" departSpeed="10" departLane="best"/>
   <vehicle id="hN2S_214" type="ego_car" route="N2S" depart="1019" departSpeed="10" departLane="best"/>
   <vehicle id="hE2W_215" type="ego_car" route="E2W" depart="1025" departSpeed="10" departLane="best"/>
   <vehicle id="hN2S_216" type="ego_car" route="N2S" depart="1026" departSpeed="10" departLane="best"/>
   <vehicle id="hE2W_217" type="ego_car" route="E2W" depart="1029" departSpeed="10" departLane="best"/>
   <vehicle id="hN2S_218" type="ego_car" route="N2S" depart="1032" departSpeed="10" departLane="best"/>
   <vehicle id="E2W_219" type="ego_car" route="E2W" depart="1033" departSpeed="10" departLane="best"/>
   <vehicle id="hW2E_220" type="ego_car" route="W2E" depart="1035" departSpeed="10" departLane="best"/>
   <vehicle id="hE2W_221" type="ego_car" route="E2W" depart="1046" departSpeed="10" departLane="best"/>
   <vehicle id="hW2E_222" type="ego_car" route="W2E" depart="1049" departSpeed="10" departLane="best"/>
   <vehicle id="hN2S_223" type="ego_car" route="N2S" depart="1057" departSpeed="10" departLane="best"/>
   <vehicle id="hW2E_224" type="ego_car" route="W2E" depart="1057" departSpeed="10" departLane="best"/>
   <vehicle id="W2E_225" type="ego_car" route="W2E" depart="1070" departSpeed="10" departLane="best"/>
   <vehicle id="hS2N_226" type="ego_car" route="S2N" depart="1073" departSpeed="10" departLane="best"/>
   <vehicle id="hE2W_227" type="ego_car" route="E2W" depart="1075" departSpeed="10" departLane="best"/>
   <vehicle id="hN2S_228" type="ego_car" route="N2S" depart="1081" departSpeed="10" departLane="best"/>
   <vehicle id="W2E_229" type="ego_car" route="W2E" depart="1101" departSpeed="10" departLane="best"/>
   <vehicle id="hE2W_230" type="ego_car" route="E2W" depart="1102" departSpeed="10" departLane="best"/>
   <vehicle id="E2W_231" type="ego_car" route="E2W" depart="1112" departSpeed="10" departLane="best"/>
   <vehicle id="N2S_232" type="ego_car" route="N2S" depart="1123" departSpeed="10" departLane="best"/>
   <vehicle id="hW2E_233" type="ego_car" route="W2E" depart="1128" departSpeed="10" departLane="best"/>
   <vehicle id="hW2E_234" type="ego_car" route="W2E" depart="1131" departSpeed="10" departLane="best"/>
   <vehicle id="W2E_235" type="ego_car" route="W2E" depart="1133" departSpeed="10" departLane="best"/>
   <vehicle id="W2E_236" type="ego_car" route="W2E" depart="1133" departSpeed="10" departLane="best"/>
   <vehicle id="hN2S_237" type="ego_car" route="N2S" depart="1142" departSpeed="10" departLane="best"/>
   <vehicle id="S2N_238" type="ego_car" route="S2N" depart="1142" departSpeed="10" departLane="best"/>
   <vehicle id="hS2N_239" type="ego_car" route="S2N" depart="1145" departSpeed="10" departLane="best"/>
   <vehicle id="hE2W_240" type="ego_car" route="E2W" depart="1151" departSpeed="10" departLane="best"/>
   <vehicle id="hS2N_241" type="ego_car" route="S2N" depart="1164" departSpeed="10" departLane="best"/>
   <vehicle id="hN2S_242" type="ego_car" route="N2S" depart="1165" departSpeed="10" departLane="best"/>
   <vehicle id="hE2W_243" type="ego_car" route="E2W" depart="1165" departSpeed="10" departLane="best"/>
   <vehicle id="hS2N_244" type="ego_car" route="S2N" depart="1166" departSpeed="10" departLane="best"/>
   <vehicle id="E2W_245" type="ego_car" route="E2W" depart="1172" departSpeed="10" departLane="best"/>
   <vehicle id="hS2N_246" type="ego_car" route="S2N" depart="1179" departSpeed="10" departLane="best"/>
   <vehicle id="N2S_247" type="ego_car" route="N2S" depart="1180" departSpeed="10" departLane="best"/>
   <vehicle id="hW2E_248" type="ego_car" route="W2E" depart="1184" departSpeed="10" departLane="best"/>
   <vehicle id="hN2S_249" type="ego_car" route="N2S" depart="1185" departSpeed="10" departLane="best"/>
   <vehicle id="hN2S_250" type="ego_car" route="N2S" depart="1190" departSpeed="10" departLane="best"/>
   <vehicle id="hE2W_251" type="ego_car" route="E2W" depart="1193" departSpeed="10" departLane="best"/>
   <vehicle id="hN2S_252" type="ego_car" route="N2S" depart="1204" departSpeed="10" departLane="best"/>
   <vehicle id="S2N_253" type="ego_car" route="S2N" depart="1205" departSpeed="10" departLane="best"/>
   <vehicle id="hW2E_254" type="ego_car" route="W2E" depart="1210" departSpeed="10" departLane="best"/>
   <vehicle id="hS2N_255" type="ego_car" route="S2N" depart="1213" departSpeed="10" departLane="best"/>
   <vehicle id="hW2E_256" type="ego_car" route="W2E" depart="1214" departSpeed="10" departLane="best"/>
   <vehicle id="N2S_257" type="ego_car" route="N2S" depart="1220" departSpeed="10" departLane="best"/>
   <vehicle id="N2S_258" type="ego_car" route="N2S" depart="1227" departSpeed="10" departLane="best"/>
   <vehicle id="hW2E_259" type="ego_car" route="W2E" depart="1227" departSpeed="10" departLane="best"/>
   <vehicle id="hE2W_260" type="ego_car" route="E2W" depart="1231" departSpeed="10" departLane="best"/>
   <vehicle id="hW2E_261" type="ego_car" route="W2E" depart="1237" departSpeed="10" departLane="best"/>
   <vehicle id="hW2E_262" type="ego_car" route="W2E" depart="1241" departSpeed="10" departLane="best"/>
   <vehicle id="hE2W_263" type="ego_car" route="E2W" depart="1243" departSpeed="10" departLane="best"/>
   <vehicle id="E2W_264" type="ego_car" route="E2W" depart="1245" departSpeed="10" departLane="best"/>
   <vehicle id="hN2S_265" type="ego_car" route="N2S" depart="1253" departSpeed="10" departLane="best"/>
   <vehicle id="hE2W_266" type="ego_car" route="E2W" depart="1258" departSpeed="10" departLane="best"/>
   <vehicle id="hN2S_267" type="ego_car" route="N2S" depart="1259" departSpeed="10" departLane="best"/>
   <vehicle id="hE2W_268" type="ego_car" route="E2W" depart="1265" departSpeed="10" departLane="best"/>
   <vehicle id="hE2W_269" type="ego_car" route="E2W" depart="1271" departSpeed="10" departLane="best"/>
   <vehicle id="N2S_270" type="ego_car" route="N2S" depart="1272" departSpeed="10" departLane="best"/>
   <vehicle id="hS2N_271" type="ego_car" route="S2N" depart="1277" departSpeed="10" departLane="best"/>
   <vehicle id="hW2E_272" type="ego_car" route="W2E" depart="1278" departSpeed="10" departLane="best"/>
   <vehicle id="hS2N_273" type="ego_car" route="S2N" depart="1279" departSpeed="10" departLane="best"/>
   <vehicle id="hN2S_274" type="ego_car" route="N2S" depart="1306" departSpeed="10" departLane="best"/>
   <vehicle id="S2N_275" type="ego_car" route="S2N" depart="1306" departSpeed="10" departLane="best"/>
   <vehicle id="N2S_276" type="ego_car" route="N2S" depart="1311" departSpeed="10" departLane="best"/>
   <vehicle id="W2E_277" type="ego_car" route="W2E" depart="1316" departSpeed="10" departLane="best"/>
   <vehicle id="hE2W_278" type="ego_car" route="E2W" depart="1325" departSpeed="10" departLane="best"/>
   <vehicle id="hN2S_279" type="ego_car" route="N2S" depart="1330" departSpeed="10" departLane="best"/>
   <vehicle id="hW2E_280" type="ego_car" route="W2E" depart="1333" departSpeed="10" departLane="best"/>
   <vehicle id="hS2N_281" type="ego_car" route="S2N" depart="1340" departSpeed="10" departLane="best"/>
   <vehicle id="N2S_282" type="ego_car" route="N2S" depart="1342" departSpeed="10" departLane="best"/>
   <vehicle id="hW2E_283" type="ego_car" route="W2E" depart="1361" departSpeed="10" departLane="best"/>
   <vehicle id="hW2E_284" type="ego_car" route="W2E" depart="1367" departSpeed="10" departLane="best"/>
   <vehicle id="hW2E_285" type="ego_car" route="W2E" depart="1367" departSpeed="10" departLane="best"/>
   <vehicle id="hW2E_286" type="ego_car" route="W2E" depart="1373" departSpeed="10" departLane="best"/>
   <vehicle id="hN2S_287" type="ego_car" route="N2S" depart="1376" departSpeed="10" departLane="best"/>
   <vehicle id="W2E_288" type="ego_car" route="W2E" depart="1376" departSpeed="10" departLane="best"/>