<routes>

        <vType id = 'ego_car' vclass="evehicle" emissionClass="Energy" tau="1.5" accel="3.0" decel="3.0" color="#00FFFF" sigma="0.2" length="4.90" minGap="1.0" maxSpeed="20" carFollowing="IDM" guiShape="passenger"/>

        <route id="N2S" edges="NS -SN"/>
        <route id="S2N" edges="SN -NS"/>
        <route id="W2E" edges="WE -EW"/>
        <route id="E2W" edges="EW -WE"/>
   <vehicle id="hS2N_1" type="ego_car" route="S2N" depart="107" departSpeed="10" departLane="best"/>
   <vehicle id="S2N_2" type="ego_car" route="S2N" depart="120" departSpeed="10" departLane="best"/>
   <vehicle id="hW2E_3" type="ego_car" route="W2E" depart="126" departSpeed="10" departLane="best"/>
   <vehicle id="N2S_4" type="ego_car" route="N2S" depart="137" departSpeed="10" departLane="best"/>
   <vehicle id="hN2S_5" type="ego_car" route="N2S" depart="143" departSpeed="10" departLane="best"/>
   <vehicle id="hS2N_6" type="ego_car" route="S2N" depart="150" departSpeed="10" departLane="best"/>
   <vehicle id="hW2E_7" type="ego_car" route="W2E" depart="172" departSpeed="10" departLane="best"/>
   <vehicle id="N2S_8" type="ego_car" route="N2S" depart="177" departSpeed="10" departLane="best"/>
   <vehicle id="hS2N_9" type="ego_car" route="S2N" depart="186" departSpeed="10" departLane="best"/>
   <vehicle id="E2W_10" type="ego_car" route="E2W" depart="188" departSpeed="10" departLane="best"/>
   <vehicle id="N2S_11" type="ego_car" route="N2S" depart="220" departSpeed="10" departLane="best"/>
   <vehicle id="hW2E_12" type="ego_car" route="W2E" depart="227" departSpeed="10" departLane="best"/>
   <vehicle id="S2N_13" type="ego_car" route="S2N" depart="267" departSpeed="10" departLane="best"/>
   <vehicle id="S2N_14" type="ego_car" route="S2N" depart="269" departSpeed="10" departLane="best"/>
   <vehicle id="hS2N_15" type="ego_car" route="S2N" depart="272" departSpeed="10" departLane="best"/>
   <vehicle id="hE2W_16" type="ego_car" route="E2W" depart="277" departSpeed="10" departLane="best"/>
   <vehicle id="E2W_17" type="ego_car" route="E2W" depart="284" departSpeed="10" departLane="best"/>
   <vehicle id="hN2S_18" type="ego_car" route="N2S" depart="313" departSpeed="10" departLane="best"/>
   <vehicle id="hN2S_19" type="ego_car" route="N2S" depart="314" departSpeed="10" departLane="best"/>
   <vehicle id="W2E_20" type="ego_car" route="W2E" depart="317" departSpeed="10" departLane="best"/>
   <vehicle id="hN2S_21" type="ego_car" route="N2S" depart="331" departSpeed="10" departLane="best"/>
   <vehicle id="hN2S_22" type="ego_car" route="N2S" depart="336" departSpeed="10" departLane="best"/>
   <vehicle id="hN2S_23" type="ego_car" route="N2S" depart="338" departSpeed="10" departLane="best"/>
   <vehicle id="N2S_24" type="ego_car" route="N2S" depart="341" departSpeed="10" departLane="best"/>
   <vehicle id="hN2S_25" type="ego_car" route="N2S" depart="343" departSpeed="10" departLane="best"/>
   <vehicle id="hS2N_26" type="ego_car" route="S2N" depart="344" departSpeed="10" departLane="best"/>
   <vehicle id="N2S_27" type="ego_car" route="N2S" depart="353" departSpeed="10" departLane="best"/>
   <vehicle id="N2S_28" type="ego_car" route="N2S" depart="371" departSpeed="10" departLane="best"/>
   <vehicle id="hW2E_29" type="ego_car" route="W2E" depart="374" departSpeed="10" departLane="best"/>
   <vehicle id="hS2N_30" type="ego_car" route="S2N" depart="377" departSpeed="10" departLane="best"/>
   <vehicle id="hW2E_31" type="ego_car" route="W2E" depart="386" departSpeed="10" departLane="best"/>
   <vehicle id="hW2E_32" type="ego_car" route="W2E" depart="405" departSpeed="10" departLane="best"/>
   <vehicle id="hN2S_33" type="ego_car" route="N2S" depart="406" departSpeed="10" departLane="best"/>
   <vehicle id="hW2E_34" type="ego_car" route="W2E" depart="416" departSpeed="10" departLane="best"/>
   <vehicle id="hE2W_35" type="ego_car" route="E2W" depart="422" departSpeed="10" departLane="best"/>
   <vehicle id="hN2S_36" type="ego_car" route="N2S" depart="422" departSpeed="10" departLane="best"/>
   <vehicle id="hN2S_37" type="ego_car" route="N2S" depart="436" departSpeed="10" departLane="best"/>
   <vehicle id="hN2S_38" type="ego_car" route="N2S" depart="441" departSpeed="10" departLane="best"/>
   <vehicle id="hE2W_39" type="ego_car" route="E2W" depart="455" departSpeed="10" departLane="best"/>
   <vehicle id="hW2E_40" type="ego_car" route="W2E" depart="466" departSpeed="10" departLane="best"/>
   <vehicle id="hW2E_41" type="ego_car" route="W2E" depart="467" departSpeed="10" departLane="best"/>
   <vehicle id="W2E_42" type="ego_car" route="W2E" depart="468" departSpeed="10" departLane="best"/>
   <vehicle id="E2W_43" type="ego_car" route="E2W" depart="472" departSpeed="10" departLane="best"/>
   <vehicle id="hW2E_44" type="ego_car" route="W2E" depart="481" departSpeed="10" departLane="best"/>
   <vehicle id="S2N_45" type="ego_car" route="S2N" depart="482" departSpeed="10" departLane="best"/>
   <vehicle id="S2N_46" type="ego_car" route="S2N" depart="485" departSpeed="10" departLane="best"/>
   <vehicle id="N2S_47" type="ego_car" route="N2S" depart="486" departSpeed="10" departLane="best"/>
   <vehicle id="hW2E_48" type="ego_car" route="W2E" depart="487" departSpeed="10" departLane="best"/>
   <vehicle id="hW2E_49" type="ego_car" route="W2E" depart="490" departSpeed="10" departLane="best"/>
   <vehicle id="hE2W_50" type="ego_car" route="E2W" depart="491" departSpeed="10" departLane="best"/>
   <vehicle id="hS2N_51" type="ego_car" route="S2N" depart="514" departSpeed="10" departLane="best"/>
   <vehicle id="W2E_52" type="ego_car" route="W2E" depart="518" departSpeed="10" departLane="best"/>
   <vehicle id="hW2E_53" type="ego_car" route="W2E" depart="522" departSpeed="10" departLane="best"/>
   <vehicle id="hE2W_54" type="ego_car" route="E2W" depart="530" departSpeed="10" departLane="best"/>
   <vehicle id="hW2E_55" type="ego_car" route="W2E" depart="533" departSpeed="10" departLane="best"/>
   <vehicle id="hS2N_56" type="ego_car" route="S2N" depart="535" departSpeed="10" departLane="best"/>
   <vehicle id="W2E_57" type="ego_car" route="W2E" depart="545" departSpeed="10" departLane="best"/>
   <vehicle id="hN2S_58" type="ego_car" route="N2S" depart="545" departSpeed="10" departLane="best"/>
   <vehicle id="N2S_59" type="ego_car" route="N2S" depart="552" departSpeed="10" departLane="best"/>
   <vehicle id="hS2N_60" type="ego_car" route="S2N" depart="567" departSpeed="10" departLane="best"/>
   <vehicle id="hW2E_61" type="ego_car" route="W2E" depart="577" departSpeed="10" departLane="best"/>
   <vehicle id="hS2N_62" type="ego_car" route="S2N" depart="578" departSpeed="10" departLane="best"/>
   <vehicle id="hE2W_63" type="ego_car" route="E2W" depart="583" departSpeed="10" departLane="best"/>
   <vehicle id="hS2N_64" type="ego_car" route="S2N" depart="583" departSpeed="10" departLane="best"/>
   <vehicle id="hW2E_65" type="ego_car" route="W2E" depart="584" departSpeed="10" departLane="best"/>
   <vehicle id="hN2S_66" type="ego_car" route="N2S" depart="585" departSpeed="10" departLane="best"/>
   <vehicle id="S2N_67" type="ego_car" route="S2N" depart="603" departSpeed="10" departLane="best"/>
   <vehicle id="W2E_68" type="ego_car" route="W2E" depart="607" departSpeed="10" departLane="best"/>
   <vehicle id="hS2N_69" type="ego_car" route="S2N" depart="609" departSpeed="10" departLane="best"/>
   <vehicle id="hW2E_70" type="ego_car" route="W2E" depart="610" departSpeed="10" departLane="best"/>
   <vehicle id="E2W_71" type="ego_car" route="E2W" depart="612" departSpeed="10" departLane="best"/>
   <vehicle id="hE2W_72" type="ego_car" route="E2W" depart="616" departSpeed="10" departLane="best"/>
   <vehicle id="hW2E_73" type="ego_car" route="W2E" depart="619" departSpeed="10" departLane="best"/>
   <vehicle id="hW2E_74" type="ego_car" route="W2E" depart="625" departSpeed="10" departLane="best"/>
   <vehicle id="hW2E_75" type="ego_car" route="W2E" depart="626" departSpeed="10" departLane="best"/>
   <vehicle id="hN2S_76" type="ego_car" route="N2S" depart="627" departSpeed="10" departLane="best"/>
   <vehicle id="hS2N_77" type="ego_car" route="S2N" depart="630" departSpeed="10" departLane="best"/>
   <vehicle id="hW2E_78" type="ego_car" route="W2E" depart="635" departSpeed="10" departLane="best"/>
   <vehicle id="hN2S_79" type="ego_car" route="N2S" depart="638" departSpeed="10" departLane="best"/>
   <vehicle id="S2N_80" type="ego_car" route="S2N" depart="639" departSpeed="10" departLane="best"/>
   <vehicle id="hN2S_81" type="ego_car" route="N2S" depart="646" departSpeed="10" departLane="best"/>
   <vehicle id="hS2N_82" type="ego_car" route="S2N" depart="647" departSpeed="10" departLane="best"/>
   <vehicle id="hS2N_83" type="ego_car" route="S2N" depart="658" departSpeed="10" departLane="best"/>
   <vehicle id="hN2S_84" type="ego_car" route="N2S" depart="658" departSpeed="10" departLane="best"/>
   <vehicle id="hN2S_85" type="ego_car" route="N2S" depart="661" departSpeed="10" departLane="best"/>
   <vehicle id="W2E_86" type="ego_car" route="W2E" depart="661" departSpeed="10" departLane="best"/>
   <vehicle id="hS2N_87" type="ego_car" route="S2N" depart="662" departSpeed="10" departLane="best"/>
   <vehicle id="hE2W_88" type="ego_car" route="E2W" depart="665" departSpeed="10" departLane="best"/>
   <vehicle id="W2E_89" type="ego_car" route="W2E" depart="669" departSpeed="10" departLane="best"/>
   <vehicle id="W2E_90" type="ego_car" route="W2E" depart="683" departSpeed="10" departLane="best"/>
   <vehicle id="W2E_91" type="ego_car" route="W2E" depart="683" departSpeed="10" departLane="best"/>
   <vehicle id="hW2E_92" type="ego_car" route="W2E" depart="685" departSpeed="10" departLane="best"/>
   <vehicle id="hS2N_93" type="ego_car" route="S2N" depart="686" departSpeed="10" departLane="best"/>
   <vehicle id="hN2S_94" type="ego_car" route="N2S" depart="687" departSpeed="10" departLane="best"/>
   <vehicle id="N2S_95" type="ego_car" route="N2S" depart="692" departSpeed="10" departLane="best"/>
   <vehicle id="hW2E_96" type="ego_car" route="W2E" depart="693" departSpeed="10" departLane="best"/>
   <vehicle id="hW2E_97" type="ego_car" route="W2E" depart="696" departSpeed="10" departLane="best"/>
   <vehicle id="hN2S_98" type="ego_car" route="N2S" depart="702" departSpeed="10" departLane="best"/>
   <vehicle id="hN2S_99" type="ego_car" route="N2S" depart="709" departSpeed="10" departLane="best"/>
   <vehicle id="hW2E_100" type="ego_car" route="W2E" depart="711" departSpeed="10" departLane="best"/>
   <vehicle id="S2N_101" type="ego_car" route="S2N" depart="712" departSpeed="10" departLane="best"/>
   <vehicle id="hN2S_102" type="ego_car" route="N2S" depart="717" departSpeed="10" departLane="best"/>
   <vehicle id="hS2N_103" type="ego_car" route="S2N" depart="721" departSpeed="10" departLane="best"/>
   <vehicle id="hS2N_104" type="ego_car" route="S2N" depart="724" departSpeed="10" departLane="best"/>
   <vehicle id="hW2E_105" type="ego_car" route="W2E" depart="725" departSpeed="10" departLane="best"/>
   <vehicle id="hW2E_106" type="ego_car" route="W2E" depart="726" departSpeed="10" departLane="best"/>
   <vehicle id="W2E_107" type="ego_car" route="W2E" depart="727" departSpeed="10" departLane="best"/>
   <vehicle id="hS2N_108" type="ego_car" route="S2N" depart="728" departSpeed="10" departLane="best"/>
   <vehicle id="hW2E_109" type="ego_car" route="W2E" depart="730" departSpeed="10" departLane="best"/>
   <vehicle id="hN2S_110" type="ego_car" route="N2S" depart="735" departSpeed="10" departLane="best"/>
   <vehicle id="hS2N_111" type="ego_car" route="S2N" depart="737" departSpeed="10" departLane="best"/>
   <vehicle id="hS2N_112" type="ego_car" route="S2N" depart="743" departSpeed="10" departLane="best"/>
   <vehicle id="hW2E_113" type="ego_car" route="W2E" depart="756" departSpeed="10" departLane="best"/>
   <vehicle id="S2N_114" type="ego_car" route="S2N" depart="761" departSpeed="10" departLane="best"/>
   <vehicle id="hN2S_115" type="ego_car" route="N2S" depart="763" departSpeed="10" departLane="best"/>
   <vehicle id="hN2S_116" type="ego_car" route="N2S" depart="767" departSpeed="10" departLane="best"/>
   <vehicle id="hW2E_117" type="ego_car" route="W2E" depart="768" departSpeed="10" departLane="best"/>
   <vehicle id="hW2E_118" type="ego_car" route="W2E" depart="772" departSpeed="10" departLane="best"/>
   <vehicle id="hS2N_119" type="ego_car" route="S2N" depart="773" departSpeed="10" departLane="best"/>
   <vehicle id="E2W_120" type="ego_car" route="E2W" depart="776" departSpeed="10" departLane="best"/>
   <vehicle id="hW2E_121" type="ego_car" route="W2E" depart="788" departSpeed="10" departLane="best"/>
   <vehicle id="hE2W_122" type="ego_car" route="E2W" depart="791" departSpeed="10" departLane="best"/>
   <vehicle id="hN2S_123" type="ego_car" route="N2S" depart="798" departSpeed="10" departLane="best"/>
   <vehicle id="hN2S_124" type="ego_car" route="N2S" depart="799" departSpeed="10" departLane="best"/>
   <vehicle id="W2E_125" type="ego_car" route="W2E" depart="799" departSpeed="10" departLane="best"/>
   <vehicle id="hN2S_126" type="ego_car" route="N2S" depart="802" departSpeed="10" departLane="best"/>
   <vehicle id="S2N_127" type="ego_car" route="S2N" depart="808" departSpeed="10" departLane="best"/>
   <vehicle id="hW2E_128" type="ego_car" route="W2E" depart="808" departSpeed="10" departLane="best"/>
   <vehicle id="hE2W_129" type="ego_car" route="E2W" depart="812" departSpeed="10" departLane="best"/>
   <vehicle id="hS2N_130" type="ego_car" route="S2N" depart="812" departSpeed="10" departLane="best"/>
   <vehicle id="hW2E_131" type="ego_car" route="W2E" depart="825" departSpeed="10" departLane="best"/>
   <vehicle id="E2W_132" type="ego_car" route="E2W" depart="829" departSpeed="10" departLane="best"/>
   <vehicle id="hS2N_133" type="ego_car" route="S2N" depart="830" departSpeed="10" departLane="best"/>
   <vehicle id="hW2E_134" type="ego_car" route="W2E" depart="832" departSpeed="10" departLane="best"/>
   <vehicle id="W2E_135" type="ego_car" route="W2E" depart="836" departSpeed="10" departLane="best"/>
   <vehicle id="hW2E_136" type="ego_car" route="W2E" depart="843" departSpeed="10" departLane="best"/>
   <vehicle id="N2S_137" type="ego_car" route="N2S" depart="847" departSpeed="10" departLane="best"/>
   <vehicle id="hS2N_138" type="ego_car" route="S2N" depart="850" departSpeed="10" departLane="best"/>
   <vehicle id="hS2N_139" type="ego_car" route="S2N" depart="853" departSpeed="10" departLane="best"/>
   <vehicle id="N2S_140" type="ego_car" route="N2S" depart="853" departSpeed="10" departLane="best"/>
   <vehicle id="hN2S_141" type="ego_car" route="N2S" depart="855" departSpeed="10" departLane="best"/>
   <vehicle id="hN2S_142" type="ego_car" route="N2S" depart="859" departSpeed="10" departLane="best"/>
   <vehicle id="hN2S_143" type="ego_car" route="N2S" depart="863" departSpeed="10" departLane="best"/>
   <vehicle id="hW2E_144" type="ego_car" route="W2E" depart="863" departSpeed="10" departLane="best"/>
   <vehicle id="hE2W_145" type="ego_car" route="E2W" depart="865" departSpeed="10" departLane="best"/>
   <vehicle id="S2N_146" type="ego_car" route="S2N" depart="868" departSpeed="10" departLane="best"/>
   <vehicle id="hW2E_147" type="ego_car" route="W2E" depart="878" departSpeed="10" departLane="best"/>
   <vehicle id="hW2E_148" type="ego_car" route="W2E" depart="880" departSpeed="10" departLane="best"/>
   <vehicle id="E2W_149" type="ego_car" route="E2W" depart="885" departSpeed="10" departLane="best"/>
   <vehicle id="hN2S_150" type="ego_car" route="N2S" depart="885" departSpeed="10" departLane="best"/>
   <vehicle id="hE2W_151" type="ego_car" route="E2W" depart="894" departSpeed="10" departLane="best"/>
   <vehicle id="hS2N_152" type="ego_car" route="S2N" depart="906" departSpeed="10" departLane="best"/>
   <vehicle id="hW2E_153" type="ego_car" route="W2E" depart="906" departSpeed="10" departLane="best"/>
   <vehicle id="hN2S_154" type="ego_car" route="N2S" depart="909" departSpeed="10" departLane="best"/>
   <vehicle id="E2W_155" type="ego_car" route="E2W" depart="912" departSpeed="10" departLane="best"/>
   <vehicle id="N2S_156" type="ego_car" route="N2S" depart="926" departSpeed="10" departLane="best"/>
   <vehicle id="hN2S_157" type="ego_car" route="N2S" depart="927" departSpeed="10" departLane="best"/>
   <vehicle id="hN2S_158" type="ego_car" route="N2S" depart="930" departSpeed="10" departLane="best"/>
   <vehicle id="S2N_159" type="ego_car" route="S2N" depart="931" departSpeed="10" departLane="best"/>
   <vehicle id="S2N_160" type="ego_car" route="S2N" depart="931" departSpeed="10" departLane="best"/>
   <vehicle id="S2N_161" type="ego_car" route="S2N" depart="935" departSpeed="10" departLane="best"/>
   <vehicle id="hW2E_162" type="ego_car" route="W2E" depart="940" departSpeed="10" departLane="best"/>
   <vehicle id="W2E_163" type="ego_car" route="W2E" depart="945" departSpeed="10" departLane="best"/>
   <vehicle id="hS2N_164" type="ego_car" route="S2N" depart="947" departSpeed="10" departLane="best"/>
   <vehicle id="hS2N_165" type="ego_car" route="S2N" depart="948" departSpeed="10" departLane="best"/>
   <vehicle id="E2W_166" type="ego_car" route="E2W" depart="952" departSpeed="10" departLane="best"/>
   <vehicle id="N2S_167" type="ego_car" route="N2S" depart="954" departSpeed="10" departLane="best"/>
   <vehicle id="hE2W_168" type="ego_car" route="E2W" depart="955" departSpeed="10" departLane="best"/>
   <vehicle id="N2S_169" type="ego_car" route="N2S" depart="956" departSpeed="10" departLane="best"/>
   <vehicle id="N2S_170" type="ego_car" route="N2S" depart="962" departSpeed="10" departLane="best"/>
   <vehicle id="hN2S_171" type="ego_car" route="N2S" depart="963" departSpeed="10" departLane="best"/>
   <vehicle id="hN2S_172" type="ego_car" route="N2S" depart="966" departSpeed="10" departLane="best"/>
   <vehicle id="hS2N_173" type="ego_car" route="S2N" depart="970" departSpeed="10" departLane="best"/>
   <vehicle id="hW2E_174" type="ego_car" route="W2E" depart="974" departSpeed="10" departLane="best"/>
   <vehicle id="hN2S_175" type="ego_car" route="N2S" depart="983" departSpeed="10" departLane="best"/>
   <vehicle id="N2S_176" type="ego_car" route="N2S" depart="985" departSpeed="10" departLane="best"/>
   <vehicle id="N2S_177" type="ego_car" route="N2S" depart="987" departSpeed="10" departLane="best"/>
   <vehicle id="hS2N_178" type="ego_car" route="S2N" depart="996" departSpeed="10" departLane="best"/>
   <vehicle id="hS2N_179" type="ego_car" route="S2N" depart="997" departSpeed="10" departLane="best"/>
   <vehicle id="hS2N_180" type="ego_car" route="S2N" depart="1012" departSpeed="10" departLane="best"/>
   <vehicle id="hS2N_181" type="ego_car" route="S2N" depart="1019" departSpeed="10" departLane="best"/>
   <vehicle id="hW2E_182" type="ego_car" route="W2E" depart="1020" departSpeed="10" departLane="best"/>
   <vehicle id="hE2W_183" type="ego_car" route="E2W" depart="1024" departSpeed="10" departLane="best"/>
   <vehicle id="E2W_184" type="ego_car" route="E2W" depart="1026" departSpeed="10" departLane="best"/>
   <vehicle id="hE2W_185" type="ego_car" route="E2W" depart="1027" departSpeed="10" departLane="best"/>
   <vehicle id="hS2N_186" type="ego_car" route="S2N" depart="1031" departSpeed="10" departLane="best"/>
   <vehicle id="hN2S_187" type="ego_car" route="N2S" depart="1033" departSpeed="10" departLane="best"/>
   <vehicle id="W2E_188" type="ego_car" route="W2E" depart="1033" departSpeed="10" departLane="best"/>
   <vehicle id="W2E_189" type="ego_car" route="W2E" depart="1037" departSpeed="10" departLane="best"/>
   <vehicle id="hN2S_190" type="ego_car" route="N2S" depart="1047" departSpeed="10" departLane="best"/>
   <vehicle id="hS2N_191" type="ego_car" route="S2N" depart="1051" departSpeed="10" departLane="best"/>
   <vehicle id="hN2S_192" type="ego_car" route="N2S" depart="1057" departSpeed="10" departLane="best"/>
   <vehicle id="W2E_193" type="ego_car" route="W2E" depart="1057" departSpeed="10" departLane="best"/>
   <vehicle id="hS2N_194" type="ego_car" route="S2N" depart="1060" departSpeed="10" departLane="best"/>
   <vehicle id="hS2N_195" type="ego_car" route="S2N" depart="1063" departSpeed="10" departLane="best"/>
   <vehicle id="hS2N_196" type="ego_car" route="S2N" depart="1065" departSpeed="10" departLane="best"/>
   <vehicle id="hN2S_197" type="ego_car" route="N2S" depart="1065" departSpeed="10" departLane="best"/>
   <vehicle id="E2W_198" type="ego_car" route="E2W" depart="1067" departSpeed="10" departLane="best"/>
   <vehicle id="hS2N_199" type="ego_car" route="S2N" depart="1074" departSpeed="10" departLane="best"/>
   <vehicle id="hS2N_200" type="ego_car" route="S2N" depart="1078" departSpeed="10" departLane="best"/>
   <vehicle id="hN2S_201" type="ego_car" route="N2S" depart="1087" departSpeed="10" departLane="best"/>
   <vehicle id="hE2W_202" type="ego_car" route="E2W" depart="1094" departSpeed="10" departLane="best"/>
   <vehicle id="hS2N_203" type="ego_car" route="S2N" depart="1095" departSpeed="10" departLane="best"/>
   <vehicle id="N2S_204" type="ego_car" route="N2S" depart="1098" departSpeed="10" departLane="best"/>
   <vehicle id="hN2S_205" type="ego_car" route="N2S" depart="1100" departSpeed="10" departLane="best"/>
   <vehicle id="W2E_206" type="ego_car" route="W2E" depart="1101" departSpeed="10" departLane="best"/>
   <vehicle id="hW2E_207" type="ego_car" route="W2E" depart="1104" departSpeed="10" departLane="best"/>
   <vehicle id="S2N_208" type="ego_car" route="S2N" depart="1118" departSpeed="10" departLane="best"/>
   <vehicle id="hN2S_209" type="ego_car" route="N2S" depart="1123" departSpeed="10" departLane="best"/>
   <vehicle id="hS2N_210" type="ego_car" route="S2N" depart="1131" departSpeed="10" departLane="best"/>
   <vehicle id="hS2N_211" type="ego_car" route="S2N" depart="1136" departSpeed="10" departLane="best"/>
   <vehicle id="hN2S_212" type="ego_car" route="N2S" depart="1140" departSpeed="10" departLane="best"/>
   <vehicle id="hS2N_213" type="ego_car" route="S2N" depart="1142" departSpeed="10" departLane="best"/>
   <vehicle id="hS2N_214" type="ego_car" route="S2N" depart="1151" departSpeed="10" departLane="best"/>
   <vehicle id="hE2W_215" type="ego_car" route="E2W" depart="1156" departSpeed="10" departLane="best"/>
   <vehicle id="hW2E_216" type="ego_car" route="W2E" depart="1157" departSpeed="10" departLane="best"/>
   <vehicle id="hW2E_217" type="ego_car" route="W2E" depart="1158" departSpeed="10" departLane="best"/>
   <vehicle id="hE2W_218" type="ego_car" route="E2W" depart="1161" departSpeed="10" departLane="best"/>
   <vehicle id="W2E_219" type="ego_car" route="W2E" depart="1175" departSpeed="10" departLane="best"/>
   <vehicle id="hS2N_220" type="ego_car" route="S2N" depart="1188" departSpeed="10" departLane="best"/>
   <vehicle id="hW2E_221" type="ego_car" route="W2E" depart="1190" departSpeed="10" departLane="best"/>
   <vehicle id="hS2N_222" type="ego_car" route="S2N" depart="1201" departSpeed="10" departLane="best"/>
   <vehicle id="hN2S_223" type="ego_car" route="N2S" depart="1202" departSpeed="10" departLane="best"/>
   <vehicle id="hN2S_224" type="ego_car" route="N2S" depart="1203" departSpeed="10" departLane="best"/>
   <vehicle id="N2S_225" type="ego_car" route="N2S" depart="1212" departSpeed="10" departLane="best"/>
   <vehicle id="hS2N_226" type="ego_car" route="S2N" depart="1220" departSpeed="10" departLane="best"/>
   <vehicle id="hE2W_227" type="ego_car" route="E2W" depart="1227" departSpeed="10" departLane="best"/>
   <vehicle id="hN2S_228" type="ego_car" route="N2S" depart="1227" departSpeed="10" departLane="best"/>
   <vehicle id="S2N_229" type="ego_car" route="S2N" depart="1233" departSpeed="10" departLane="best"/>
   <vehicle id="hN2S_230" type="ego_car" route="N2S" depart="1234" departSpeed="10" departLane="best"/>
   <vehicle id="E2W_231" type="ego_car" route="E2W" depart="1236" departSpeed="10" departLane="best"/>
   <vehicle id="W2E_232" type="ego_car" route="W2E" depart="1239" departSpeed="10" departLane="best"/>
   <vehicle id="hS2N_233" type="ego_car" route="S2N" depart="1240" departSpeed="10" departLane="best"/>
   <vehicle id="hN2S_234" type="ego_car" route="N2S" depart="1248" departSpeed="10" departLane="best"/>
   <vehicle id="W2E_235" type="ego_car" route="W2E" depart="1251" departSpeed="10" departLane="best"/>
   <vehicle id="N2S_236" type="ego_car" route="N2S" depart="1251" departSpeed="10" departLane="best"/>
   <vehicle id="hE2W_237" type="ego_car" route="E2W" depart="1260" departSpeed="10" departLane="best"/>
   <vehicle id="N2S_238" type="ego_car" route="N2S" depart="1265" departSpeed="10" departLane="best"/>
   <vehicle id="hW2E_239" type="ego_car" route="W2E" depart="1277" departSpeed="10" departLane="best"/>
   <vehicle id="hE2W_240" type="ego_car" route="E2W" depart="1283" departSpeed="10" departLane="best"/>
   <vehicle id="hN2S_241" type="ego_car" route="N2S" depart="1288" departSpeed="10" departLane="best"/>
   <vehicle id="hN2S_242" type="ego_car" route="N2S" depart="1295" departSpeed="10" departLane="best"/>
   <vehicle id="hW2E_243" type="ego_car" route="W2E" depart="1296" departSpeed="10" departLane="best"/>
   <vehicle id="hW2E_244" type="ego_car" route="W2E" depart="1298" departSpeed="10" departLane="best"/>
   <vehicle id="W2E_245" type="ego_car" route="W2E" depart="1304" departSpeed="10" departLane="best"/>
   <vehicle id="hS2N_246" type="ego_car" route="S2N" depart="1310" departSpeed="10" departLane="best"/>
   <vehicle id="S2N_247" type="ego_car" route="S2N" depart="1315" departSpeed="10" departLane="best"/>
   <vehicle id="hE2W_248" type="ego_car" route="E2W" depart="1319" departSpeed="10" departLane="best"/>
   <vehicle id="hN2S_249" type="ego_car" route="N2S" depart="1331" departSpeed="10" departLane="best"/>
   <vehicle id="hS2N_250" type="ego_car" route="S2N" depart="1341" departSpeed="10" departLane="best"/>
   <vehicle id="hS2N_251" type="ego_car" route="S2N" depart="1353" departSpeed="10" departLane="best"/>
   <vehicle id="hS2N_252" type="ego_car" route="S2N" depart="1354" departSpeed="10" departLane="best"/>
   <vehicle id="E2W_253" type="ego_car" route="E2W" depart="1363" departSpeed="10" departLane="best"/>
   <vehicle id="hN2S_254" type="ego_car" route="N2S" depart="1364" departSpeed="10" departLane="best"/>
   <vehicle id="hN2S_255" type="ego_car" route="N2S" depart="1366" departSpeed="10" departLane="best"/>
   <vehicle id="hE2W_256" type="ego_car" route="E2W" depart="1368" departSpeed="10" departLane="best"/>
   <vehicle id="S2N_257" type="ego_car" route="S2N" depart="1372" departSpeed="10" departLane="best"/>
   <vehicle id="E2W_258" type="ego_car" route="E2W" depart="1374" departSpeed="10" departLane="best"/>
   <vehicle id="hW2E_259" type="ego_car" route="W2E" depart="1375" departSpeed="10" departLane="best"/>
   <vehicle id="hS2N_260" type="ego_car" route="S2N" depart="1383" departSpeed="10" departLane="best"/>
   <vehicle id="hE2W_261" type="ego_car" route="E2W" depart="1387" departSpeed="10" departLane="best"/>
   <vehicle id="hS2N_262" type="ego_car" route="S2N" depart="1388" departSpeed="10" departLane="best"/>
   <vehicle id="hW2E_263" type="ego_car" route="W2E" depart="1389" departSpeed="10" departLane="best"/>
   <vehicle id="N2S_264" type="ego_car" route="N2S" depart="1396" departSpeed="10" departLane="best"/>
   <vehicle id="hS2N_265" type="ego_car" route="S2N" depart="1402" departSpeed="10" departLane="best"/>
   <vehicle id="hW2E_266" type="ego_car" route="W2E" depart="1403" departSpeed="10" departLane="best"/>
   <vehicle id="hE2W_267" type="ego_car" route="E2W" depart="1419" departSpeed="10" departLane="best"/>
   <vehicle id="hW2E_268" type="ego_car" route="W2E" depart="1422" departSpeed="10" departLane="best"/>
   <vehicle id="hW2E_269" type="ego_car" route="W2E" depart="1433" departSpeed="10" departLane="best"/>
   <vehicle id="N2S_270" type="ego_car" route="N2S" depart="1436" departSpeed="10" departLane="best"/>
   <vehicle id="hN2S_271" type="ego_car" route="N2S" depart="1439" departSpeed="10" departLane="best"/>
   <vehicle id="hN2S_272" type="ego_car" route="N2S" depart="1452" departSpeed="10" departLane="best"/>
   <vehicle id="hN2S_273" type="ego_car" route="N2S" depart="1458" departSpeed="10" departLane="best"/>
   <vehicle id="hS2N_274" type="ego_car" route="S2N" depart="1460" departSpeed="10" departLane="best"/>
   <vehicle id="W2E_275" type="ego_car" route="W2E" depart="1466" departSpeed="10" departLane="best"/>
   <vehicle id="S2N_276" type="ego_car" route="S2N" depart="1468" departSpeed="10" departLane="best"/>
   <vehicle id="N2S_277" type="ego_car" route="N2S" depart="1470" departSpeed="10" departLane="best"/>
   <vehicle id="hE2W_278" type="ego_car" route="E2W" depart="1478" departSpeed="10" departLane="best"/>
   <vehicle id="hE2W_279" type="ego_car" route="E2W" depart="1479" departSpeed="10" departLane="best"/>
   <vehicle id="hN2S_280" type="ego_car" route="N2S" depart="1481" departSpeed="10" departLane="best"/>
   <vehicle id="hE2W_281" type="ego_car" route="E2W" depart="1482" departSpeed="10" departLane="best"/>
   <vehicle id="E2W_282" type="ego_car" route="E2W" depart="1482" departSpeed="10" departLane="best"/>
   <vehicle id="hW2E_283" type="ego_car" route="W2E" depart="1489" departSpeed="10" departLane="best"/>
   <vehicle id="hW2E_284" type="ego_car" route="W2E" depart="1490" departSpeed="10" departLane="best"/>
   <vehicle id="hE2W_285" type="ego_car" route="E2W" depart="1492" departSpeed="10" departLane="best"/>
   <vehicle id="hS2N_286" type="ego_car" route="S2N" depart="1495" departSpeed="10" departLane="best"/>
   <vehicle id="hW2E_287" type="ego_car" route="W2E" depart="1499" departSpeed="10" departLane="best"/>
   <vehicle id="S2N_288" type="ego_car" route="S2N" depart="1506" departSpeed="10" departLane="best"/>