<routes>

        <vType id = 'ego_car' vclass="evehicle" emissionClass="Energy" tau="1.5" accel="3.0" decel="3.0" color="#00FFFF" sigma="0.2" length="4.90" minGap="1.0" maxSpeed="20" carFollowing="IDM" guiShape="passenger"/>

        <route id="N2S" edges="NS -SN"/>
        <route id="S2N" edges="SN -NS"/>
        <route id="W2E" edges="WE -EW"/>
        <route id="E2W" edges="EW -WE"/>
   <vehicle id="hN2S_1" type="ego_car" route="N2S" depart="82" departSpeed="10" departLane="best"/>
   <vehicle id="W2E_2" type="ego_car" route="W2E" depart="106" departSpeed="10" departLane="best"/>
   <vehicle id="hN2S_3" type="ego_car" route="N2S" depart="106" departSpeed="10" departLane="best"/>
   <vehicle id="E2W_4" type="ego_car" route="E2W" depart="122" departSpeed="10" departLane="best"/>
   <vehicle id="hE2W_5" type="ego_car" route="E2W" depart="135" departSpeed="10" departLane="best"/>
   <vehicle id="hE2W_6" type="ego_car" route="E2W" depart="136" departSpeed="10" departLane="best"/>
   <vehicle id="hE2W_7" type="ego_car" route="E2W" depart="138" departSpeed="10" departLane="best"/>
   <vehicle id="W2E_8" type="ego_car" route="W2E" depart="181" departSpeed="10" departLane="best"/>
   <vehicle id="hE2W_9" type="ego_car" route="E2W" depart="182" departSpeed="10" departLane="best"/>
   <vehicle id="S2N_10" type="ego_car" route="S2N" depart="186" departSpeed="10" departLane="best"/>
   <vehicle id="E2W_11" type="ego_car" route="E2W" depart="188" departSpeed="10" departLane="best"/>
   <vehicle id="hE2W_12" type="ego_car" route="E2W" depart="191" departSpeed="10" departLane="best"/>
   <vehicle id="W2E_13" type="ego_car" route="W2E" depart="212" departSpeed="10" departLane="best"/>
   <vehicle id="S2N_14" type="ego_car" route="S2N" depart="228" departSpeed="10" departLane="best"/>
   <vehicle id="hN2S_15" type="ego_car" route="N2S" depart="245" departSpeed="10" departLane="best"/>
   <vehicle id="hW2E_16" type="ego_car" route="W2E" depart="253" departSpeed="10" departLane="best"/>
   <vehicle id="S2N_17" type="ego_car" route="S2N" depart="260" departSpeed="10" departLane="best"/>
   <vehicle id="hW2E_18" type="ego_car" route="W2E" depart="260" departSpeed="10" departLane="best"/>
   <vehicle id="hE2W_19" type="ego_car" route="E2W" depart="266" departSpeed="10" departLane="best"/>
   <vehicle id="W2E_20" type="ego_car" route="W2E" depart="282" departSpeed="10" departLane="best"/>
   <vehicle id="hN2S_21" type="ego_car" route="N2S" depart="299" departSpeed="10" departLane="best"/>
   <vehicle id="hS2N_22" type="ego_car" route="S2N" depart="307" departSpeed="10" departLane="best"/>
   <vehicle id="hE2W_23" type="ego_car" route="E2W" depart="311" departSpeed="10" departLane="best"/>
   <vehicle id="E2W_24" type="ego_car" route="E2W" depart="311" departSpeed="10" departLane="best"/>
   <vehicle id="hW2E_25" type="ego_car" route="W2E" depart="327" departSpeed="10" departLane="best"/>
   <vehicle id="hN2S_26" type="ego_car" route="N2S" depart="342" departSpeed="10" departLane="best"/>
   <vehicle id="E2W_27" type="ego_car" route="E2W" depart="342" departSpeed="10" departLane="best"/>
   <vehicle id="N2S_28" type="ego_car" route="N2S" depart="344" departSpeed="10" departLane="best"/>
   <vehicle id="hE2W_29" type="ego_car" route="E2W" depart="347" departSpeed="10" departLane="best"/>
   <vehicle id="hE2W_30" type="ego_car" route="E2W" depart="350" departSpeed="10" departLane="best"/>
   <vehicle id="hE2W_31" type="ego_car" route="E2W" depart="350" departSpeed="10" departLane="best"/>
   <vehicle id="hN2S_32" type="ego_car" route="N2S" depart="359" departSpeed="10" departLane="best"/>
   <vehicle id="hN2S_33" type="ego_car" route="N2S" depart="365" departSpeed="10" departLane="best"/>
   <vehicle id="hE2W_34" type="ego_car" route="E2W" depart="366" departSpeed="10" departLane="best"/>
   <vehicle id="hW2E_35" type="ego_car" route="W2E" depart="378" departSpeed="10" departLane="best"/>
   <vehicle id="hN2S_36" type="ego_car" route="N2S" depart="380" departSpeed="10" departLane="best"/>
   <vehicle id="hE2W_37" type="ego_car" route="E2W" depart="386" departSpeed="10" departLane="best"/>
   <vehicle id="hN2S_38" type="ego_car" route="N2S" depart="387" departSpeed="10" departLane="best"/>
   <vehicle id="hS2N_39" type="ego_car" route="S2N" depart="389" departSpeed="10" departLane="best"/>
   <vehicle id="hS2N_40" type="ego_car" route="S2N" depart="390" departSpeed="10" departLane="best"/>
   <vehicle id="hE2W_41" type="ego_car" route="E2W" depart="396" departSpeed="10" departLane="best"/>
   <vehicle id="W2E_42" type="ego_car" route="W2E" depart="404" departSpeed="10" departLane="best"/>
   <vehicle id="E2W_43" type="ego_car" route="E2W" depart="405" departSpeed="10" departLane="best"/>
   <vehicle id="hN2S_44" type="ego_car" route="N2S" depart="406" departSpeed="10" departLane="best"/>
   <vehicle id="W2E_45" type="ego_car" route="W2E" depart="418" departSpeed="10" departLane="best"/>
   <vehicle id="W2E_46" type="ego_car" route="W2E" depart="420" departSpeed="10" departLane="best"/>
   <vehicle id="W2E_47" type="ego_car" route="W2E" depart="423" departSpeed="10" departLane="best"/>
   <vehicle id="hN2S_48" type="ego_car" route="N2S" depart="424" departSpeed="10" departLane="best"/>
   <vehicle id="hS2N_49" type="ego_car" route="S2N" depart="425" departSpeed="10" departLane="best"/>
   <vehicle id="hS2N_50" type="ego_car" route="S2N" depart="426" departSpeed="10" departLane="best"/>
   <vehicle id="hS2N_51" type="ego_car" route="S2N" depart="429" departSpeed="10" departLane="best"/>
   <vehicle id="N2S_52" type="ego_car" route="N2S" depart="434" departSpeed="10" departLane="best"/>
   <vehicle id="hW2E_53" type="ego_car" route="W2E" depart="435" departSpeed="10" departLane="best"/>
   <vehicle id="hW2E_54" type="ego_car" route="W2E" depart="435" departSpeed="10" departLane="best"/>
   <vehicle id="hW2E_55" type="ego_car" route="W2E" depart="437" departSpeed="10" departLane="best"/>
   <vehicle id="hE2W_56" type="ego_car" route="E2W" depart="441" departSpeed="10" departLane="best"/>
   <vehicle id="E2W_57" type="ego_car" route="E2W" depart="446" departSpeed="10" departLane="best"/>
   <vehicle id="hE2W_58" type="ego_car" route="E2W" depart="454" departSpeed="10" departLane="best"/>
   <vehicle id="N2S_59" type="ego_car" route="N2S" depart="458" departSpeed="10" departLane="best"/>
   <vehicle id="hE2W_60" type="ego_car" route="E2W" depart="462" departSpeed="10" departLane="best"/>
   <vehicle id="hS2N_61" type="ego_car" route="S2N" depart="470" departSpeed="10" departLane="best"/>
   <vehicle id="hS2N_62" type="ego_car" route="S2N" depart="477" departSpeed="10" departLane="best"/>
   <vehicle id="hE2W_63" type="ego_car" route="E2W" depart="480" departSpeed="10" departLane="best"/>
   <vehicle id="hE2W_64" type="ego_car" route="E2W" depart="483" departSpeed="10" departLane="best"/>
   <vehicle id="hS2N_65" type="ego_car" route="S2N" depart="488" departSpeed="10" departLane="best"/>
   <vehicle id="hW2E_66" type="ego_car" route="W2E" depart="488" departSpeed="10" departLane="best"/>
   <vehicle id="E2W_67" type="ego_car" route="E2W" depart="492" departSpeed="10" departLane="best"/>
   <vehicle id="S2N_68" type="ego_car" route="S2N" depart="495" departSpeed="10" departLane="best"/>
   <vehicle id="hE2W_69" type="ego_car" route="E2W" depart="496" departSpeed="10" departLane="best"/>
   <vehicle id="hN2S_70" type="ego_car" route="N2S" depart="507" departSpeed="10" departLane="best"/>
   <vehicle id="E2W_71" type="ego_car" route="E2W" depart="508" departSpeed="10" departLane="best"/>
   <vehicle id="hW2E_72" type="ego_car" route="W2E" depart="509" departSpeed="10" departLane="best"/>
   <vehicle id="hS2N_73" type="ego_car" route="S2N" depart="512" departSpeed="10" departLane="best"/>
   <vehicle id="hS2N_74" type="ego_car" route="S2N" depart="526" departSpeed="10" departLane="best"/>
   <vehicle id="hW2E_75" type="ego_car" route="W2E" depart="527" departSpeed="10" departLane="best"/>
   <vehicle id="hW2E_76" type="ego_car" route="W2E" depart="531" departSpeed="10" departLane="best"/>
   <vehicle id="hW2E_77" type="ego_car" route="W2E" depart="538" departSpeed="10" departLane="best"/>
   <vehicle id="hN2S_78" type="ego_car" route="N2S" depart="543" departSpeed="10" departLane="best"/>
   <vehicle id="hS2N_79" type="ego_car" route="S2N" depart="551" departSpeed="10" departLane="best"/>
   <vehicle id="S2N_80" type="ego_car" route="S2N" depart="558" departSpeed="10" departLane="best"/>
   <vehicle id="hN2S_81" type="ego_car" route="N2S" depart="559" departSpeed="10" departLane="best"/>
   <vehicle id="hS2N_82" type="ego_car" route="S2N" depart="559" departSpeed="10" departLane="best"/>
   <vehicle id="hW2E_83" type="ego_car" route="W2E" depart="566" departSpeed="10" departLane="best"/>
   <vehicle id="hE2W_84" type="ego_car" route="E2W" depart="571" departSpeed="10" departLane="best"/>
   <vehicle id="hN2S_85" type="ego_car" route="N2S" depart="572" departSpeed="10" departLane="best"/>
   <vehicle id="N2S_86" type="ego_car" route="N2S" depart="582" departSpeed="10" departLane="best"/>
   <vehicle id="hS2N_87" type="ego_car" route="S2N" depart="586" departSpeed="10" departLane="best"/>
   <vehicle id="hW2E_88" type="ego_car" route="W2E" depart="586" departSpeed="10" departLane="best"/>
   <vehicle id="W2E_89" type="ego_car" route="W2E" depart="590" departSpeed="10" departLane="best"/>
   <vehicle id="S2N_90" type="ego_car" route="S2N" depart="599" departSpeed="10" departLane="best"/>
   <vehicle id="S2N_91" type="ego_car" route="S2N" depart="601" departSpeed="10" departLane="best"/>
   <vehicle id="hN2S_92" type="ego_car" route="N2S" depart="611" departSpeed="10" departLane="best"/>
   <vehicle id="hE2W_93" type="ego_car" route="E2W" depart="611" departSpeed="10" departLane="best"/>
   <vehicle id="hS2N_94" type="ego_car" route="S2N" depart="613" departSpeed="10" departLane="best"/>
   <vehicle id="N2S_95" type="ego_car" route="N2S" depart="620" departSpeed="10" departLane="best"/>
   <vehicle id="hN2S_96" type="ego_car" route="N2S" depart="621" departSpeed="10" departLane="best"/>
   <vehicle id="hS2N_97" type="ego_car" route="S2N" depart="621" departSpeed="10" departLane="best"/>
   <vehicle id="hE2W_98" type="ego_car" route="E2W" depart="621" departSpeed="10" departLane="best"/>
   <vehicle id="hE2W_99" type="ego_car" route="E2W" depart="626" departSpeed="10" departLane="best"/>
   <vehicle id="hE2W_100" type="ego_car" route="E2W" depart="640" departSpeed="10" departLane="best"/>
   <vehicle id="W2E_101" type="ego_car" route="W2E" depart="641" departSpeed="10" departLane="best"/>
   <vehicle id="hW2E_102" type="ego_car" route="W2E" depart="642" departSpeed="10" departLane="best"/>
   <vehicle id="hE2W_103" type="ego_car" route="E2W" depart="643" departSpeed="10" departLane="best"/>
   <vehicle id="hS2N_104" type="ego_car" route="S2N" depart="646" departSpeed="10" departLane="best"/>
   <vehicle id="hE2W_105" type="ego_car" route="E2W" depart="646" departSpeed="10" departLane="best"/>
   <vehicle id="hS2N_106" type="ego_car" route="S2N" depart="647" departSpeed="10" departLane="best"/>
   <vehicle id="W2E_107" type="ego_car" route="W2E" depart="649" departSpeed="10" departLane="best"/>
   <vehicle id="hW2E_108" type="ego_car" route="W2E" depart="649" departSpeed="10" departLane="best"/>
   <vehicle id="hN2S_109" type="ego_car" route="N2S" depart="658" departSpeed="10" departLane="best"/>
   <vehicle id="hW2E_110" type="ego_car" route="W2E" depart="659" departSpeed="10" departLane="best"/>
   <vehicle id="hW2E_111" type="ego_car" route="W2E" depart="660" departSpeed="10" departLane="best"/>
   <vehicle id="hN2S_112" type="ego_car" route="N2S" depart="669" departSpeed="10" departLane="best"/>
   <vehicle id="hN2S_113" type="ego_car" route="N2S" depart="670" departSpeed="10" departLane="best"/>
   <vehicle id="N2S_114" type="ego_car" route="N2S" depart="671" departSpeed="10" departLane="best"/>
   <vehicle id="hW2E_115" type="ego_car" route="W2E" depart="678" departSpeed="10" departLane="best"/>
   <vehicle id="hE2W_116" type="ego_car" route="E2W" depart="678" departSpeed="10" departLane="best"/>
   <vehicle id="hN2S_117" type="ego_car" route="N2S" depart="679" departSpeed="10" departLane="best"/>
   <vehicle id="hE2W_118" type="ego_car" route="E2W" depart="686" departSpeed="10" departLane="best"/>
   <vehicle id="hS2N_119" type="ego_car" route="S2N" depart="693" departSpeed="10" departLane="best"/>
   <vehicle id="N2S_120" type="ego_car" route="N2S" depart="696" departSpeed="10" departLane="best"/>
   <vehicle id="hW2E_121" type="ego_car" route="W2E" depart="699" departSpeed="10" departLane="best"/>
   <vehicle id="hW2E_122" type="ego_car" route="W2E" depart="700" departSpeed="10" departLane="best"/>
   <vehicle id="hS2N_123" type="ego_car" route="S2N" depart="702" departSpeed="10" departLane="best"/>
   <vehicle id="hE2W_124" type="ego_car" route="E2W" depart="702" departSpeed="10" departLane="best"/>
   <vehicle id="W2E_125" type="ego_car" route="W2E" depart="703" departSpeed="10" departLane="best"/>
   <vehicle id="hW2E_126" type="ego_car" route="W2E" depart="705" departSpeed="10" departLane="best"/>
   <vehicle id="S2N_127" type="ego_car" route="S2N" depart="706" departSpeed="10" departLane="best"/>
   <vehicle id="hW2E_128" type="ego_car" route="W2E" depart="713" departSpeed="10" departLane="best"/>
   <vehicle id="hS2N_129" type="ego_car" route="S2N" depart="717" departSpeed="10" departLane="best"/>
   <vehicle id="hS2N_130" type="ego_car" route="S2N" depart="718" departSpeed="10" departLane="best"/>
   <vehicle id="hN2S_131" type="ego_car" route="N2S" depart="719" departSpeed="10" departLane="best"/>
   <vehicle id="S2N_132" type="ego_car" route="S2N" depart="723" departSpeed="10" departLane="best"/>
   <vehicle id="hW2E_133" type="ego_car" route="W2E" depart="729" departSpeed="10" departLane="best"/>
   <vehicle id="hW2E_134" type="ego_car" route="W2E" depart="730" departSpeed="10" departLane="best"/>
   <vehicle id="W2E_135" type="ego_car" route="W2E" depart="735" departSpeed="10" departLane="best"/>
   <vehicle id="hS2N_136" type="ego_car" route="S2N" depart="744" departSpeed="10" departLane="best"/>
   <vehicle id="W2E_137" type="ego_car" route="W2E" depart="747" departSpeed="10" departLane="best"/>
   <vehicle id="hS2N_138" type="ego_car" route="S2N" depart="755" departSpeed="10" departLane="best"/>
   <vehicle id="hE2W_139" type="ego_car" route="E2W" depart="759" departSpeed="10" departLane="best"/>
   <vehicle id="N2S_140" type="ego_car" route="N2S" depart="763" departSpeed="10" departLane="best"/>
   <vehicle id="hE2W_141" type="ego_car" route="E2W" depart="765" departSpeed="10" departLane="best"/>
   <vehicle id="hW2E_142" type="ego_car" route="W2E" depart="766" departSpeed="10" departLane="best"/>
   <vehicle id="hE2W_143" type="ego_car" route="E2W" depart="770" departSpeed="10" departLane="best"/>
   <vehicle id="hW2E_144" type="ego_car" route="W2E" depart="777" departSpeed="10" departLane="best"/>
   <vehicle id="hE2W_145" type="ego_car" route="E2W" depart="778" departSpeed="10" departLane="best"/>
   <vehicle id="N2S_146" type="ego_car" route="N2S" depart="783" departSpeed="10" departLane="best"/>
   <vehicle id="hW2E_147" type="ego_car" route="W2E" depart="783" departSpeed="10" departLane="best"/>
   <vehicle id="hE2W_148" type="ego_car" route="E2W" depart="784" departSpeed="10" departLane="best"/>
   <vehicle id="S2N_149" type="ego_car" route="S2N" depart="788" departSpeed="10" departLane="best"/>
   <vehicle id="hE2W_150" type="ego_car" route="E2W" depart="789" departSpeed="10" departLane="best"/>
   <vehicle id="hE2W_151" type="ego_car" route="E2W" depart="789" departSpeed="10" departLane="best"/>
   <vehicle id="hW2E_152" type="ego_car" route="W2E" depart="796" departSpeed="10" departLane="best"/>
   <vehicle id="hW2E_153" type="ego_car" route="W2E" depart="803" departSpeed="10" departLane="best"/>
   <vehicle id="hE2W_154" type="ego_car" route="E2W" depart="810" departSpeed="10" departLane="best"/>
   <vehicle id="E2W_155" type="ego_car" route="E2W" depart="811" departSpeed="10" departLane="best"/>
   <vehicle id="W2E_156" type="ego_car" route="W2E" depart="813" departSpeed="10" departLane="best"/>
   <vehicle id="hW2E_157" type="ego_car" route="W2E" depart="814" departSpeed="10" departLane="best"/>
   <vehicle id="hN2S_158" type="ego_car" route="N2S" depart="824" departSpeed="10" departLane="best"/>
   <vehicle id="S2N_159" type="ego_car" route="S2N" depart="833" departSpeed="10" departLane="best"/>
   <vehicle id="N2S_160" type="ego_car" route="N2S" depart="846" departSpeed="10" departLane="best"/>
   <vehicle id="S2N_161" type="ego_car" route="S2N" depart="849" departSpeed="10" departLane="best"/>
   <vehicle id="hE2W_162" type="ego_car" route="E2W" depart="851" departSpeed="10" departLane="best"/>
   <vehicle id="W2E_163" type="ego_car" route="W2E" depart="852" departSpeed="10" departLane="best"/>
   <vehicle id="hE2W_164" type="ego_car" route="E2W" depart="855" departSpeed="10" departLane="best"/>
   <vehicle id="hW2E_165" type="ego_car" route="W2E" depart="861" departSpeed="10" departLane="best"/>
   <vehicle id="E2W_166" type="ego_car" route="E2W" depart="862" departSpeed="10" departLane="best"/>
   <vehicle id="N2S_167" type="ego_car" route="N2S" depart="867" departSpeed="10" departLane="best"/>
   <vehicle id="hS2N_168" type="ego_car" route="S2N" depart="867" departSpeed="10" departLane="best"/>
   <vehicle id="W2E_169" type="ego_car" route="W2E" depart="868" departSpeed="10" departLane="best"/>
   <vehicle id="S2N_170" type="ego_car" route="S2N" depart="871" departSpeed="10" departLane="best"/>
   <vehicle id="hN2S_171" type="ego_car" route="N2S" depart="874" departSpeed="10" departLane="best"/>
   <vehicle id="hS2N_172" type="ego_car" route="S2N" depart="877" departSpeed="10" departLane="best"/>
   <vehicle id="hW2E_173" type="ego_car" route="W2E" depart="879" departSpeed="10" departLane="best"/>
   <vehicle id="hS2N_174" type="ego_car" route="S2N" depart="889" departSpeed="10" departLane="best"/>
   <vehicle id="hW2E_175" type="ego_car" route="W2E" depart="892" departSpeed="10" departLane="best"/>
   <vehicle id="W2E_176" type="ego_car" route="W2E" depart="893" departSpeed="10" departLane="best"/>
   <vehicle id="S2N_177" type="ego_car" route="S2N" depart="895" departSpeed="10" departLane="best"/>
   <vehicle id="hW2E_178" type="ego_car" route="W2E" depart="896" departSpeed="10" departLane="best"/>
   <vehicle id="hN2S_179" type="ego_car" route="N2S" depart="899" departSpeed="10" departLane="best"/>
   <vehicle id="hE2W_180" type="ego_car" route="E2W" depart="899" departSpeed="10" departLane="best"/>
   <vehicle id="hN2S_181" type="ego_car" route="N2S" depart="906" departSpeed="10" departLane="best"/>
   <vehicle id="hS2N_182" type="ego_car" route="S2N" depart="910" departSpeed="10" departLane="best"/>
   <vehicle id="hW2E_183" type="ego_car" route="W2E" depart="913" departSpeed="10" departLane="best"/>
   <vehicle id="S2N_184" type="ego_car" route="S2N" depart="918" departSpeed="10" departLane="best"/>
   <vehicle id="hS2N_185" type="ego_car" route="S2N" depart="922" departSpeed="10" departLane="best"/>
   <vehicle id="hS2N_186" type="ego_car" route="S2N" depart="925" departSpeed="10" departLane="best"/>
   <vehicle id="hW2E_187" type="ego_car" route="W2E" depart="937" departSpeed="10" departLane="best"/>
   <vehicle id="N2S_188" type="ego_car" route="N2S" depart="948" departSpeed="10" departLane="best"/>
   <vehicle id="N2S_189" type="ego_car" route="N2S" depart="957" departSpeed="10" departLane="best"/>
   <vehicle id="hS2N_190" type="ego_car" route="S2N" depart="959" departSpeed="10" departLane="best"/>
   <vehicle id="hS2N_191" type="ego_car" route="S2N" depart="967" departSpeed="10" departLane="best"/>
   <vehicle id="hN2S_192" type="ego_car" route="N2S" depart="970" departSpeed="10" departLane="best"/>
   <vehicle id="W2E_193" type="ego_car" route="W2E" depart="970" departSpeed="10" departLane="best"/>
   <vehicle id="hW2E_194" type="ego_car" route="W2E" depart="975" departSpeed="10" departLane="best"/>
   <vehicle id="hW2E_195" type="ego_car" route="W2E" depart="977" departSpeed="10" departLane="best"/>
   <vehicle id="hN2S_196" type="ego_car" route="N2S" depart="982" departSpeed="10" departLane="best"/>
   <vehicle id="hS2N_197" type="ego_car" route="S2N" depart="988" departSpeed="10" departLane="best"/>
   <vehicle id="S2N_198" type="ego_car" route="S2N" depart="991" departSpeed="10" departLane="best"/>
   <vehicle id="hN2S_199" type="ego_car" route="N2S" depart="992" departSpeed="10" departLane="best"/>
   <vehicle id="hW2E_200" type="ego_car" route="W2E" depart="995" departSpeed="10" departLane="best"/>
   <vehicle id="hS2N_201" type="ego_car" route="S2N" depart="1000" departSpeed="10" departLane="best"/>
   <vehicle id="hW2E_202" type="ego_car" route="W2E" depart="1006" departSpeed="10" departLane="best"/>
   <vehicle id="hW2E_203" type="ego_car" route="W2E" depart="1008" departSpeed="10" departLane="best"/>
   <vehicle id="N2S_204" type="ego_car" route="N2S" depart="1016" departSpeed="10" departLane="best"/>
   <vehicle id="hS2N_205" type="ego_car" route="S2N" depart="1016" departSpeed="10" departLane="best"/>
   <vehicle id="N2S_206" type="ego_car" route="N2S" depart="1019" departSpeed="10" departLane="best"/>
   <vehicle id="hW2E_207" type="ego_car" route="W2E" depart="1023" departSpeed="10" departLane="best"/>
   <vehicle id="N2S_208" type="ego_car" route="N2S" depart="1026" departSpeed="10" departLane="best"/>
   <vehicle id="hS2N_209" type="ego_car" route="S2N" depart="1030" departSpeed="10" departLane="best"/>
   <vehicle id="hS2N_210" type="ego_car" route="S2N" depart="1032" departSpeed="10" departLane="best"/>
   <vehicle id="hE2W_211" type="ego_car" route="E2W" depart="1035" departSpeed="10" departLane="best"/>
   <vehicle id="hS2N_212" type="ego_car" route="S2N" depart="1035" departSpeed="10" departLane="best"/>
   <vehicle id="hS2N_213" type="ego_car" route="S2N" depart="1043" departSpeed="10" departLane="best"/>
   <vehicle id="hN2S_214" type="ego_car" route="N2S" depart="1047" departSpeed="10" departLane="best"/>
   <vehicle id="hN2S_215" type="ego_car" route="N2S" depart="1054" departSpeed="10" departLane="best"/>
   <vehicle id="hE2W_216" type="ego_car" route="E2W" depart="1056" departSpeed="10" departLane="best"/>
   <vehicle id="hE2W_217" type="ego_car" route="E2W" depart="1057" departSpeed="10" departLane="best"/>
   <vehicle id="hE2W_218" type="ego_car" route="E2W" depart="1064" departSpeed="10" departLane="best"/>
   <vehicle id="N2S_219" type="ego_car" route="N2S" depart="1066" departSpeed="10" departLane="best"/>
   <vehicle id="hE2W_220" type="ego_car" route="E2W" depart="1073" departSpeed="10" departLane="best"/>
   <vehicle id="hN2S_221" type="ego_car" route="N2S" depart="1078" departSpeed="10" departLane="best"/>
   <vehicle id="hS2N_222" type="ego_car" route="S2N" depart="1079" departSpeed="10" departLane="best"/>
   <vehicle id="hE2W_223" type="ego_car" route="E2W" depart="1081" departSpeed="10" departLane="best"/>
   <vehicle id="hS2N_224" type="ego_car" route="S2N" depart="1092" departSpeed="10" departLane="best"/>
   <vehicle id="E2W_225" type="ego_car" route="E2W" depart="1093" departSpeed="10" departLane="best"/>
   <vehicle id="hN2S_226" type="ego_car" route="N2S" depart="1095" departSpeed="10" departLane="best"/>
   <vehicle id="hN2S_227" type="ego_car" route="N2S" depart="1095" departSpeed="10" departLane="best"/>
   <vehicle id="hN2S_228" type="ego_car" route="N2S" depart="1108" departSpeed="10" departLane="best"/>
   <vehicle id="S2N_229" type="ego_car" route="S2N" depart="1114" departSpeed="10" departLane="best"/>
   <vehicle id="hE2W_230" type="ego_car" route="E2W" depart="1118" departSpeed="10" departLane="best"/>
   <vehicle id="N2S_231" type="ego_car" route="N2S" depart="1122" departSpeed="10" departLane="best"/>
   <vehicle id="E2W_232" type="ego_car" route="E2W" depart="1123" departSpeed="10" departLane="best"/>
   <vehicle id="hW2E_233" type="ego_car" route="W2E" depart="1125" departSpeed="10" departLane="best"/>
   <vehicle id="hW2E_234" type="ego_car" route="W2E" depart="1128" departSpeed="10" departLane="best"/>
   <vehicle id="N2S_235" type="ego_car" route="N2S" depart="1130" departSpeed="10" departLane="best"/>
   <vehicle id="S2N_236" type="ego_car" route="S2N" depart="1130" departSpeed="10" departLane="best"/>
   <vehicle id="hW2E_237" type="ego_car" route="W2E" depart="1132" departSpeed="10" departLane="best"/>
   <vehicle id="N2S_238" type="ego_car" route="N2S" depart="1140" departSpeed="10" departLane="best"/>
   <vehicle id="hS2N_239" type="ego_car" route="S2N" depart="1140" departSpeed="10" departLane="best"/>
   <vehicle id="hN2S_240" type="ego_car" route="N2S" depart="1144" departSpeed="10" departLane="best"/>
   <vehicle id="hE2W_241" type="ego_car" route="E2W" depart="1162" departSpeed="10" departLane="best"/>
   <vehicle id="hS2N_242" type="ego_car" route="S2N" depart="1164" departSpeed="10" departLane="best"/>
   <vehicle id="hE2W_243" type="ego_car" route="E2W" depart="1167" departSpeed="10" departLane="best"/>
   <vehicle id="hW2E_244" type="ego_car" route="W2E" depart="1167" departSpeed="10" departLane="best"/>
   <vehicle id="W2E_245" type="ego_car" route="W2E" depart="1183" departSpeed="10" departLane="best"/>
   <vehicle id="hN2S_246" type="ego_car" route="N2S" depart="1184" departSpeed="10" departLane="best"/>
   <vehicle id="S2N_247" type="ego_car" route="S2N" depart="1186" departSpeed="10" departLane="best"/>
   <vehicle id="hS2N_248" type="ego_car" route="S2N" depart="1186" departSpeed="10" departLane="best"/>
   <vehicle id="hS2N_249" type="ego_car" route="S2N" depart="1188" departSpeed="10" departLane="best"/>
   <vehicle id="hW2E_250" type="ego_car" route="W2E" depart="1189" departSpeed="10" departLane="best"/>
   <vehicle id="hN2S_251" type="ego_car" route="N2S" depart="1194" departSpeed="10" departLane="best"/>
   <vehicle id="hN2S_252" type="ego_car" route="N2S" depart="1198" departSpeed="10" departLane="best"/>
   <vehicle id="E2W_253" type="ego_car" route="E2W" depart="1208" departSpeed="10" departLane="best"/>
   <vehicle id="hS2N_254" type="ego_car" route="S2N" depart="1212" departSpeed="10" departLane="best"/>
   <vehicle id="hS2N_255" type="ego_car" route="S2N" depart="1217" departSpeed="10" departLane="best"/>
   <vehicle id="hS2N_256" type="ego_car" route="S2N" depart="1219" departSpeed="10" departLane="best"/>
   <vehicle id="N2S_257" type="ego_car" route="N2S" depart="1227" departSpeed="10" departLane="best"/>
   <vehicle id="S2N_258" type="ego_car" route="S2N" depart="1230" departSpeed="10" departLane="best"/>
   <vehicle id="hE2W_259" type="ego_car" route="E2W" depart="1231" departSpeed="10" departLane="best"/>
   <vehicle id="hS2N_260" type="ego_car" route="S2N" depart="1236" departSpeed="10" departLane="best"/>
   <vehicle id="hW2E_261" type="ego_car" route="W2E" depart="1237" departSpeed="10" departLane="best"/>
   <vehicle id="hE2W_262" type="ego_car" route="E2W" depart="1246" departSpeed="10" departLane="best"/>
   <vehicle id="hS2N_263" type="ego_car" route="S2N" depart="1269" departSpeed="10" departLane="best"/>
   <vehicle id="W2E_264" type="ego_car" route="W2E" depart="1270" departSpeed="10" departLane="best"/>
   <vehicle id="hW2E_265" type="ego_car" route="W2E" depart="1280" departSpeed="10" departLane="best"/>
   <vehicle id="hW2E_266" type="ego_car" route="W2E" depart="1280" departSpeed="10" departLane="best"/>
   <vehicle id="hE2W_267" type="ego_car" route="E2W" depart="1287" departSpeed="10" departLane="best"/>
   <vehicle id="hN2S_268" type="ego_car" route="N2S" depart="1289" departSpeed="10" departLane="best"/>
   <vehicle id="hS2N_269" type="ego_car" route="S2N" depart="1301" departSpeed="10" departLane="best"/>
   <vehicle id="E2W_270" type="ego_car" route="E2W" depart="1303" departSpeed="10" departLane="best"/>
   <vehicle id="hS2N_271" type="ego_car" route="S2N" depart="1310" departSpeed="10" departLane="best"/>
   <vehicle id="hW2E_272" type="ego_car" route="W2E" depart="1312" departSpeed="10" departLane="best"/>
   <vehicle id="hN2S_273" type="ego_car" route="N2S" depart="1315" departSpeed="10" departLane="best"/>
   <vehicle id="hE2W_274" type="ego_car" route="E2W" depart="1315" departSpeed="10" departLane="best"/>
   <vehicle id="W2E_275" type="ego_car" route="W2E" depart="1316" departSpeed="10" departLane="best"/>
   <vehicle id="S2N_276" type="ego_car" route="S2N" depart="1317" departSpeed="10" departLane="best"/>
   <vehicle id="N2S_277" type="ego_car" route="N2S" depart="1318" departSpeed="10" departLane="best"/>
   <vehicle id="hN2S_278" type="ego_car" route="N2S" depart="1322" departSpeed="10" departLane="best"/>
   <vehicle id="hS2N_279" type="ego_car" route="S2N" depart="1326" departSpeed="10" departLane="best"/>
   <vehicle id="hS2N_280" type="ego_car" route="S2N" depart="1326" departSpeed="10" departLane="best"/>
   <vehicle id="hW2E_281" type="ego_car" route="W2E" depart="1327" departSpeed="10" departLane="best"/>
   <vehicle id="W2E_282" type="ego_car" route="W2E" depart="1335" departSpeed="10" departLane="best"/>
   <vehicle id="hS2N_283" type="ego_car" route="S2N" depart="1352" departSpeed="10" departLane="best"/>
   <vehicle id="hN2S_284" type="ego_car" route="N2S" depart="1369" departSpeed="10" departLane="best"/>
   <vehicle id="hN2S_285" type="ego_car" route="N2S" depart="1372" departSpeed="10" departLane="best"/>
   <vehicle id="hN2S_286" type="ego_car" route="N2S" depart="1374" departSpeed="10" departLane="best"/>
   <vehicle id="hE2W_287" type="ego_car" route="E2W" depart="1374" departSpeed="10" departLane="best"/>
   <vehicle id="E2W_288" type="ego_car" route="E2W" depart="1375" departSpeed="10" departLane="best"/>