<routes>

        <vType id = 'ego_car' vclass="evehicle" emissionClass="Energy" tau="1.5" accel="3.0" decel="3.0" color="#00FFFF" sigma="0.2" length="4.90" minGap="1.0" maxSpeed="20" carFollowing="IDM" guiShape="passenger"/>

        <route id="N2S" edges="NS -SN"/>
        <route id="S2N" edges="SN -NS"/>
        <route id="W2E" edges="WE -EW"/>
        <route id="E2W" edges="EW -WE"/>
   <vehicle id="hW2E_1" type="ego_car" route="W2E" depart="49" departSpeed="10" departLane="best"/>
   <vehicle id="S2N_2" type="ego_car" route="S2N" depart="50" departSpeed="10" departLane="best"/>
   <vehicle id="hW2E_3" type="ego_car" route="W2E" depart="132" departSpeed="10" departLane="best"/>
   <vehicle id="W2E_4" type="ego_car" route="W2E" depart="138" departSpeed="10" departLane="best"/>
   <vehicle id="hE2W_5" type="ego_car" route="E2W" depart="150" departSpeed="10" departLane="best"/>
   <vehicle id="hW2E_6" type="ego_car" route="W2E" depart="160" departSpeed="10" departLane="best"/>
   <vehicle id="hS2N_7" type="ego_car" route="S2N" depart="175" departSpeed="10" departLane="best"/>
   <vehicle id="N2S_8" type="ego_car" route="N2S" depart="184" departSpeed="10" departLane="best"/>
   <vehicle id="hN2S_9" type="ego_car" route="N2S" depart="221" departSpeed="10" departLane="best"/>
   <vehicle id="S2N_10" type="ego_car" route="S2N" depart="223" departSpeed="10" departLane="best"/>
   <vehicle id="E2W_11" type="ego_car" route="E2W" depart="224" departSpeed="10" departLane="best"/>
   <vehicle id="hW2E_12" type="ego_car" route="W2E" depart="228" departSpeed="10" departLane="best"/>
   <vehicle id="N2S_13" type="ego_car" route="N2S" depart="236" departSpeed="10" departLane="best"/>
   <vehicle id="N2S_14" type="ego_car" route="N2S" depart="237" departSpeed="10" departLane="best"/>
   <vehicle id="hN2S_15" type="ego_car" route="N2S" depart="243" departSpeed="10" departLane="best"/>
   <vehicle id="hN2S_16" type="ego_car" route="N2S" depart="255" departSpeed="10" departLane="best"/>
   <vehicle id="E2W_17" type="ego_car" route="E2W" depart="264" departSpeed="10" departLane="best"/>
   <vehicle id="hW2E_18" type="ego_car" route="W2E" depart="267" departSpeed="10" departLane="best"/>
   <vehicle id="hW2E_19" type="ego_car" route="W2E" depart="268" departSpeed="10" departLane="best"/>
   <vehicle id="E2W_20" type="ego_car" route="E2W" depart="297" departSpeed="10" departLane="best"/>
   <vehicle id="hS2N_21" type="ego_car" route="S2N" depart="299" departSpeed="10" departLane="best"/>
   <vehicle id="hS2N_22" type="ego_car" route="S2N" depart="313" departSpeed="10" departLane="best"/>
   <vehicle id="hS2N_23" type="ego_car" route="S2N" depart="327" departSpeed="10" departLane="best"/>
   <vehicle id="S2N_24" type="ego_car" route="S2N" depart="334" departSpeed="10" departLane="best"/>
   <vehicle id="hW2E_25" type="ego_car" route="W2E" depart="336" departSpeed="10" departLane="best"/>
   <vehicle id="hW2E_26" type="ego_car" route="W2E" depart="339" departSpeed="10" departLane="best"/>
   <vehicle id="S2N_27" type="ego_car" route="S2N" depart="357" departSpeed="10" departLane="best"/>
   <vehicle id="S2N_28" type="ego_car" route="S2N" depart="366" departSpeed="10" departLane="best"/>
   <vehicle id="hE2W_29" type="ego_car" route="E2W" depart="372" departSpeed="10" departLane="best"/>
   <vehicle id="hN2S_30" type="ego_car" route="N2S" depart="372" departSpeed="10" departLane="best"/>
   <vehicle id="hN2S_31" type="ego_car" route="N2S" depart="383" departSpeed="10" departLane="best"/>
   <vehicle id="hW2E_32" type="ego_car" route="W2E" depart="396" departSpeed="10" departLane="best"/>
   <vehicle id="hW2E_33" type="ego_car" route="W2E" depart="398" departSpeed="10" departLane="best"/>
   <vehicle id="hN2S_34" type="ego_car" route="N2S" depart="401" departSpeed="10" departLane="best"/>
   <vehicle id="hS2N_35" type="ego_car" route="S2N" depart="411" departSpeed="10" departLane="best"/>
   <vehicle id="hE2W_36" type="ego_car" route="E2W" depart="417" departSpeed="10" departLane="best"/>
   <vehicle id="hN2S_37" type="ego_car" route="N2S" depart="426" departSpeed="10" departLane="best"/>
   <vehicle id="hN2S_38" type="ego_car" route="N2S" depart="430" departSpeed="10" departLane="best"/>
   <vehicle id="hS2N_39" type="ego_car" route="S2N" depart="437" departSpeed="10" departLane="best"/>
   <vehicle id="hN2S_40" type="ego_car" route="N2S" depart="437" departSpeed="10" departLane="best"/>
   <vehicle id="hN2S_41" type="ego_car" route="N2S" depart="439" departSpeed="10" departLane="best"/>
   <vehicle id="N2S_42" type="ego_car" route="N2S" depart="442" departSpeed="10" departLane="best"/>
   <vehicle id="E2W_43" type="ego_car" route="E2W" depart="444" departSpeed="10" departLane="best"/>
   <vehicle id="hS2N_44" type="ego_car" route="S2N" depart="445" departSpeed="10" departLane="best"/>
   <vehicle id="N2S_45" type="ego_car" route="N2S" depart="455" departSpeed="10" departLane="best"/>
   <vehicle id="N2S_46" type="ego_car" route="N2S" depart="455" departSpeed="10" departLane="best"/>
   <vehicle id="S2N_47" type="ego_car" route="S2N" depart="461" departSpeed="10" departLane="best"/>
   <vehicle id="hS2N_48" type="ego_car" route="S2N" depart="462" departSpeed="10" departLane="best"/>
   <vehicle id="hE2W_49" type="ego_car" route="E2W" depart="467" departSpeed="10" departLane="best"/>
   <vehicle id="hS2N_50" type="ego_car" route="S2N" depart="468" departSpeed="10" departLane="best"/>
   <vehicle id="hS2N_51" type="ego_car" route="S2N" depart="472" departSpeed="10" departLane="best"/>
   <vehicle id="W2E_52" type="ego_car" route="W2E" depart="474" departSpeed="10" departLane="best"/>
   <vehicle id="hW2E_53" type="ego_car" route="W2E" depart="483" departSpeed="10" departLane="best"/>
   <vehicle id="hS2N_54" type="ego_car" route="S2N" depart="485" departSpeed="10" departLane="best"/>
   <vehicle id="hN2S_55" type="ego_car" route="N2S" depart="505" departSpeed="10" departLane="best"/>
   <vehicle id="hE2W_56" type="ego_car" route="E2W" depart="513" departSpeed="10" departLane="best"/>
   <vehicle id="N2S_57" type="ego_car" route="N2S" depart="513" departSpeed="10" departLane="best"/>
   <vehicle id="hW2E_58" type="ego_car" route="W2E" depart="524" departSpeed="10" departLane="best"/>
   <vehicle id="W2E_59" type="ego_car" route="W2E" depart="527" departSpeed="10" departLane="best"/>
   <vehicle id="hE2W_60" type="ego_car" route="E2W" depart="528" departSpeed="10" departLane="best"/>
   <vehicle id="hE2W_61" type="ego_car" route="E2W" depart="532" departSpeed="10" departLane="best"/>
   <vehicle id="hE2W_62" type="ego_car" route="E2W" depart="535" departSpeed="10" departLane="best"/>
   <vehicle id="hW2E_63" type="ego_car" route="W2E" depart="542" departSpeed="10" departLane="best"/>
   <vehicle id="hW2E_64" type="ego_car" route="W2E" depart="549" departSpeed="10" departLane="best"/>
   <vehicle id="hS2N_65" type="ego_car" route="S2N" depart="554" departSpeed="10" departLane="best"/>
   <vehicle id="hE2W_66" type="ego_car" route="E2W" depart="562" departSpeed="10" departLane="best"/>
   <vehicle id="S2N_67" type="ego_car" route="S2N" depart="562" departSpeed="10" departLane="best"/>
   <vehicle id="S2N_68" type="ego_car" route="S2N" depart="566" departSpeed="10" departLane="best"/>
   <vehicle id="hW2E_69" type="ego_car" route="W2E" depart="568" departSpeed="10" departLane="best"/>
   <vehicle id="hW2E_70" type="ego_car" route="W2E" depart="576" departSpeed="10" departLane="best"/>
   <vehicle id="W2E_71" type="ego_car" route="W2E" depart="581" departSpeed="10" departLane="best"/>
   <vehicle id="hN2S_72" type="ego_car" route="N2S" depart="584" departSpeed="10" departLane="best"/>
   <vehicle id="hS2N_73" type="ego_car" route="S2N" depart="584" departSpeed="10" departLane="best"/>
   <vehicle id="hE2W_74" type="ego_car" route="E2W" depart="596" departSpeed="10" departLane="best"/>
   <vehicle id="hW2E_75" type="ego_car" route="W2E" depart="602" departSpeed="10" departLane="best"/>
   <vehicle id="hN2S_76" type="ego_car" route="N2S" depart="612" departSpeed="10" departLane="best"/>
   <vehicle id="hW2E_77" type="ego_car" route="W2E" depart="619" departSpeed="10" departLane="best"/>
   <vehicle id="hS2N_78" type="ego_car" route="S2N" depart="621" departSpeed="10" departLane="best"/>
   <vehicle id="hE2W_79" type="ego_car" route="E2W" depart="622" departSpeed="10" departLane="best"/>
   <vehicle id="N2S_80" type="ego_car" route="N2S" depart="633" departSpeed="10" departLane="best"/>
   <vehicle id="hE2W_81" type="ego_car" route="E2W" depart="644" departSpeed="10" departLane="best"/>
   <vehicle id="hS2N_82" type="ego_car" route="S2N" depart="652" departSpeed="10" departLane="best"/>
   <vehicle id="hW2E_83" type="ego_car" route="W2E" depart="653" departSpeed="10" departLane="best"/>
   <vehicle id="hN2S_84" type="ego_car" route="N2S" depart="654" departSpeed="10" departLane="best"/>
   <vehicle id="hE2W_85" type="ego_car" route="E2W" depart="656" departSpeed="10" departLane="best"/>
   <vehicle id="N2S_86" type="ego_car" route="N2S" depart="657" departSpeed="10" departLane="best"/>
   <vehicle id="hW2E_87" type="ego_car" route="W2E" depart="661" departSpeed="10" departLane="best"/>
   <vehicle id="hW2E_88" type="ego_car" route="W2E" depart="663" departSpeed="10" departLane="best"/>
   <vehicle id="S2N_89" type="ego_car" route="S2N" depart="666" departSpeed="10" departLane="best"/>
   <vehicle id="W2E_90" type="ego_car" route="W2E" depart="671" departSpeed="10" departLane="best"/>
   <vehicle id="E2W_91" type="ego_car" route="E2W" depart="674" departSpeed="10" departLane="best"/>
   <vehicle id="hS2N_92" type="ego_car" route="S2N" depart="677" departSpeed="10" departLane="best"/>
   <vehicle id="hN2S_93" type="ego_car" route="N2S" depart="685" departSpeed="10" departLane="best"/>
   <vehicle id="hS2N_94" type="ego_car" route="S2N" depart="688" departSpeed="10" departLane="best"/>
   <vehicle id="W2E_95" type="ego_car" route="W2E" depart="692" departSpeed="10" departLane="best"/>
   <vehicle id="hS2N_96" type="ego_car" route="S2N" depart="695" departSpeed="10" departLane="best"/>
   <vehicle id="hE2W_97" type="ego_car" route="E2W" depart="696" departSpeed="10" departLane="best"/>
   <vehicle id="hW2E_98" type="ego_car" route="W2E" depart="697" departSpeed="10" departLane="best"/>
   <vehicle id="hS2N_99" type="ego_car" route="S2N" depart="707" departSpeed="10" departLane="best"/>
   <vehicle id="hW2E_100" type="ego_car" route="W2E" depart="710" departSpeed="10" departLane="best"/>
   <vehicle id="E2W_101" type="ego_car" route="E2W" depart="711" departSpeed="10" departLane="best"/>
   <vehicle id="hW2E_102" type="ego_car" route="W2E" depart="713" departSpeed="10" departLane="best"/>
   <vehicle id="hN2S_103" type="ego_car" route="N2S" depart="714" departSpeed="10" departLane="best"/>
   <vehicle id="hW2E_104" type="ego_car" route="W2E" depart="714" departSpeed="10" departLane="best"/>
   <vehicle id="hE2W_105" type="ego_car" route="E2W" depart="722" departSpeed="10" departLane="best"/>
   <vehicle id="hW2E_106" type="ego_car" route="W2E" depart="735" departSpeed="10" departLane="best"/>
   <vehicle id="W2E_107" type="ego_car" route="W2E" depart="745" departSpeed="10" departLane="best"/>
   <vehicle id="hN2S_108" type="ego_car" route="N2S" depart="748" departSpeed="10" departLane="best"/>
   <vehicle id="hS2N_109" type="ego_car" route="S2N" depart="750" departSpeed="10" departLane="best"/>
   <vehicle id="hE2W_110" type="ego_car" route="E2W" depart="758" departSpeed="10" departLane="best"/>
   <vehicle id="hW2E_111" type="ego_car" route="W2E" depart="758" departSpeed="10" departLane="best"/>
   <vehicle id="hE2W_112" type="ego_car" route="E2W" depart="759" departSpeed="10" departLane="best"/>
   <vehicle id="hS2N_113" type="ego_car" route="S2N" depart="760" departSpeed="10" departLane="best"/>
   <vehicle id="N2S_114" type="ego_car" route="N2S" depart="768" departSpeed="10" departLane="best"/>
   <vehicle id="hE2W_115" type="ego_car" route="E2W" depart="769" departSpeed="10" departLane="best"/>
   <vehicle id="hW2E_116" type="ego_car" route="W2E" depart="769" departSpeed="10" departLane="best"/>
   <vehicle id="hW2E_117" type="ego_car" route="W2E" depart="784" departSpeed="10" departLane="best"/>
   <vehicle id="hW2E_118" type="ego_car" route="W2E" depart="788" departSpeed="10" departLane="best"/>
   <vehicle id="hS2N_119" type="ego_car" route="S2N" depart="793" departSpeed="10" departLane="best"/>
   <vehicle id="N2S_120" type="ego_car" route="N2S" depart="801" departSpeed="10" departLane="best"/>
   <vehicle id="hW2E_121" type="ego_car" route="W2E" depart="802" departSpeed="10" departLane="best"/>
   <vehicle id="hS2N_122" type="ego_car" route="S2N" depart="810" departSpeed="10" departLane="best"/>
   <vehicle id="hE2W_123" type="ego_car" route="E2W" depart="816" departSpeed="10" departLane="best"/>
   <vehicle id="hN2S_124" type="ego_car" route="N2S" depart="817" departSpeed="10" departLane="best"/>
   <vehicle id="W2E_125" type="ego_car" route="W2E" depart="820" departSpeed="10" departLane="best"/>
   <vehicle id="hW2E_126" type="ego_car" route="W2E" depart="828" departSpeed="10" departLane="best"/>
   <vehicle id="S2N_127" type="ego_car" route="S2N" depart="834" departSpeed="10" departLane="best"/>
   <vehicle id="hN2S_128" type="ego_car" route="N2S" depart="837" departSpeed="10" departLane="best"/>
   <vehicle id="hW2E_129" type="ego_car" route="W2E" depart="842" departSpeed="10" departLane="best"/>
   <vehicle id="hE2W_130" type="ego_car" route="E2W" depart="845" departSpeed="10" departLane="best"/>
   <vehicle id="hS2N_131" type="ego_car" route="S2N" depart="846" departSpeed="10" departLane="best"/>
   <vehicle id="E2W_132" type="ego_car" route="E2W" depart="857" departSpeed="10" departLane="best"/>
   <vehicle id="hS2N_133" type="ego_car" route="S2N" depart="859" departSpeed="10" departLane="best"/>
   <vehicle id="hS2N_134" type="ego_car" route="S2N" depart="859" departSpeed="10" departLane="best"/>
   <vehicle id="S2N_135" type="ego_car" route="S2N" depart="863" departSpeed="10" departLane="best"/>
   <vehicle id="hS2N_136" type="ego_car" route="S2N" depart="869" departSpeed="10" departLane="best"/>
   <vehicle id="S2N_137" type="ego_car" route="S2N" depart="874" departSpeed="10" departLane="best"/>
   <vehicle id="hS2N_138" type="ego_car" route="S2N" depart="882" departSpeed="10" departLane="best"/>
   <vehicle id="hS2N_139" type="ego_car" route="S2N" depart="884" departSpeed="10" departLane="best"/>
   <vehicle id="S2N_140" type="ego_car" route="S2N" depart="886" departSpeed="10" departLane="best"/>
   <vehicle id="hE2W_141" type="ego_car" route="E2W" depart="889" departSpeed="10" departLane="best"/>
   <vehicle id="hE2W_142" type="ego_car" route="E2W" depart="890" departSpeed="10" departLane="best"/>
   <vehicle id="hW2E_143" type="ego_car" route="W2E" depart="890" departSpeed="10" departLane="best"/>
   <vehicle id="hS2N_144" type="ego_car" route="S2N" depart="890" departSpeed="10" departLane="best"/>
   <vehicle id="hE2W_145" type="ego_car" route="E2W" depart="893" departSpeed="10" departLane="best"/>
   <vehicle id="N2S_146" type="ego_car" route="N2S" depart="893" departSpeed="10" departLane="best"/>
   <vehicle id="hE2W_147" type="ego_car" route="E2W" depart="893" departSpeed="10" departLane="best"/>
   <vehicle id="hS2N_148" type="ego_car" route="S2N" depart="897" departSpeed="10" departLane="best"/>
   <vehicle id="S2N_149" type="ego_car" route="S2N" depart="908" departSpeed="10" departLane="best"/>
   <vehicle id="hE2W_150" type="ego_car" route="E2W" depart="909" departSpeed="10" departLane="best"/>
   <vehicle id="hE2W_151" type="ego_car" route="E2W" depart="910" departSpeed="10" departLane="best"/>
   <vehicle id="hE2W_152" type="ego_car" route="E2W" depart="911" departSpeed="10" departLane="best"/>
   <vehicle id="hW2E_153" type="ego_car" route="W2E" depart="912" departSpeed="10" departLane="best"/>
   <vehicle id="hN2S_154" type="ego_car" route="N2S" depart="922" departSpeed="10" departLane="best"/>
   <vehicle id="N2S_155" type="ego_car" route="N2S" depart="922" departSpeed="10" departLane="best"/>
   <vehicle id="N2S_156" type="ego_car" route="N2S" depart="925" departSpeed="10" departLane="best"/>
   <vehicle id="hW2E_157" type="ego_car" route="W2E" depart="926" departSpeed="10" departLane="best"/>
   <vehicle id="hE2W_158" type="ego_car" route="E2W" depart="927" departSpeed="10" departLane="best"/>
   <vehicle id="W2E_159" type="ego_car" route="W2E" depart="935" departSpeed="10" departLane="best"/>
   <vehicle id="E2W_160" type="ego_car" route="E2W" depart="937" departSpeed="10" departLane="best"/>
   <vehicle id="E2W_161" type="ego_car" route="E2W" depart="937" departSpeed="10" departLane="best"/>
   <vehicle id="hS2N_162" type="ego_car" route="S2N" depart="946" departSpeed="10" departLane="best"/>
   <vehicle id="W2E_163" type="ego_car" route="W2E" depart="947" departSpeed="10" departLane="best"/>
   <vehicle id="hS2N_164" type="ego_car" route="S2N" depart="950" departSpeed="10" departLane="best"/>
   <vehicle id="hW2E_165" type="ego_car" route="W2E" depart="953" departSpeed="10" departLane="best"/>
   <vehicle id="W2E_166" type="ego_car" route="W2E" depart="953" departSpeed="10" departLane="best"/>
   <vehicle id="S2N_167" type="ego_car" route="S2N" depart="962" departSpeed="10" departLane="best"/>
   <vehicle id="hS2N_168" type="ego_car" route="S2N" depart="968" departSpeed="10" departLane="best"/>
   <vehicle id="N2S_169" type="ego_car" route="N2S" depart="969" departSpeed="10" departLane="best"/>
   <vehicle id="S2N_170" type="ego_car" route="S2N" depart="969" departSpeed="10" departLane="best"/>
   <vehicle id="hE2W_171" type="ego_car" route="E2W" depart="972" departSpeed="10" departLane="best"/>
   <vehicle id="hW2E_172" type="ego_car" route="W2E" depart="972" departSpeed="10" departLane="best"/>
   <vehicle id="hS2N_173" type="ego_car" route="S2N" depart="972" departSpeed="10" departLane="best"/>
   <vehicle id="hW2E_174" type="ego_car" route="W2E" depart="973" departSpeed="10" departLane="best"/>
   <vehicle id="hS2N_175" type="ego_car" route="S2N" depart="976" departSpeed="10" departLane="best"/>
   <vehicle id="N2S_176" type="ego_car" route="N2S" depart="979" departSpeed="10" departLane="best"/>
   <vehicle id="E2W_177" type="ego_car" route="E2W" depart="980" departSpeed="10" departLane="best"/>
   <vehicle id="hN2S_178" type="ego_car" route="N2S" depart="981" departSpeed="10" departLane="best"/>
   <vehicle id="hE2W_179" type="ego_car" route="E2W" depart="981" departSpeed="10" departLane="best"/>
   <vehicle id="hN2S_180" type="ego_car" route="N2S" depart="986" departSpeed="10" departLane="best"/>
   <vehicle id="hN2S_181" type="ego_car" route="N2S" depart="991" departSpeed="10" departLane="best"/>
   <vehicle id="hN2S_182" type="ego_car" route="N2S" depart="992" departSpeed="10" departLane="best"/>
   <vehicle id="hN2S_183" type="ego_car" route="N2S" depart="992" departSpeed="10" departLane="best"/>
   <vehicle id="W2E_184" type="ego_car" route="W2E" depart="996" departSpeed="10" departLane="best"/>
   <vehicle id="hW2E_185" type="ego_car" route="W2E" depart="1005" departSpeed="10" departLane="best"/>
   <vehicle id="hE2W_186" type="ego_car" route="E2W" depart="1006" departSpeed="10" departLane="best"/>
   <vehicle id="hN2S_187" type="ego_car" route="N2S" depart="1009" departSpeed="10" departLane="best"/>
   <vehicle id="W2E_188" type="ego_car" route="W2E" depart="1010" departSpeed="10" departLane="best"/>
   <vehicle id="N2S_189" type="ego_car" route="N2S" depart="1014" departSpeed="10" departLane="best"/>
   <vehicle id="hN2S_190" type="ego_car" route="N2S" depart="1017" departSpeed="10" departLane="best"/>
   <vehicle id="hW2E_191" type="ego_car" route="W2E" depart="1017" departSpeed="10" departLane="best"/>
   <vehicle id="hN2S_192" type="ego_car" route="N2S" depart="1023" departSpeed="10" departLane="best"/>
   <vehicle id="N2S_193" type="ego_car" route="N2S" depart="1023" departSpeed="10" departLane="best"/>
   <vehicle id="hS2N_194" type="ego_car" route="S2N" depart="1027" departSpeed="10" departLane="best"/>
   <vehicle id="hN2S_195" type="ego_car" route="N2S" depart="1035" departSpeed="10" departLane="best"/>
   <vehicle id="hE2W_196" type="ego_car" route="E2W" depart="1042" departSpeed="10" departLane="best"/>
   <vehicle id="hW2E_197" type="ego_car" route="W2E" depart="1049" departSpeed="10" departLane="best"/>
   <vehicle id="S2N_198" type="ego_car" route="S2N" depart="1050" departSpeed="10" departLane="best"/>
   <vehicle id="hE2W_199" type="ego_car" route="E2W" depart="1053" departSpeed="10" departLane="best"/>
   <vehicle id="hN2S_200" type="ego_car" route="N2S" depart="1053" departSpeed="10" departLane="best"/>
   <vehicle id="hN2S_201" type="ego_car" route="N2S" depart="1054" departSpeed="10" departLane="best"/>
   <vehicle id="hN2S_202" type="ego_car" route="N2S" depart="1055" departSpeed="10" departLane="best"/>
   <vehicle id="hE2W_203" type="ego_car" route="E2W" depart="1058" departSpeed="10" departLane="best"/>
   <vehicle id="N2S_204" type="ego_car" route="N2S" depart="1058" departSpeed="10" departLane="best"/>
   <vehicle id="hE2W_205" type="ego_car" route="E2W" depart="1063" departSpeed="10" departLane="best"/>
   <vehicle id="E2W_206" type="ego_car" route="E2W" depart="1064" departSpeed="10" departLane="best"/>
   <vehicle id="hN2S_207" type="ego_car" route="N2S" depart="1066" departSpeed="10" departLane="best"/>
   <vehicle id="N2S_208" type="ego_car" route="N2S" depart="1074" departSpeed="10" departLane="best"/>
   <vehicle id="hE2W_209" type="ego_car" route="E2W" depart="1075" departSpeed="10" departLane="best"/>
   <vehicle id="hN2S_210" type="ego_car" route="N2S" depart="1075" departSpeed="10" departLane="best"/>
   <vehicle id="hN2S_211" type="ego_car" route="N2S" depart="1077" departSpeed="10" departLane="best"/>
   <vehicle id="hE2W_212" type="ego_car" route="E2W" depart="1080" departSpeed="10" departLane="best"/>
   <vehicle id="hE2W_213" type="ego_car" route="E2W" depart="1083" departSpeed="10" departLane="best"/>
   <vehicle id="hE2W_214" type="ego_car" route="E2W" depart="1096" departSpeed="10" departLane="best"/>
   <vehicle id="hN2S_215" type="ego_car" route="N2S" depart="1097" departSpeed="10" departLane="best"/>
   <vehicle id="hW2E_216" type="ego_car" route="W2E" depart="1109" departSpeed="10" departLane="best"/>
   <vehicle id="hE2W_217" type="ego_car" route="E2W" depart="1113" departSpeed="10" departLane="best"/>
   <vehicle id="hW2E_218" type="ego_car" route="W2E" depart="1116" departSpeed="10" departLane="best"/>
   <vehicle id="E2W_219" type="ego_car" route="E2W" depart="1121" departSpeed="10" departLane="best"/>
   <vehicle id="hE2W_220" type="ego_car" route="E2W" depart="1123" departSpeed="10" departLane="best"/>
   <vehicle id="hN2S_221" type="ego_car" route="N2S" depart="1136" departSpeed="10" departLane="best"/>
   <vehicle id="hN2S_222" type="ego_car" route="N2S" depart="1137" departSpeed="10" departLane="best"/>
   <vehicle id="hW2E_223" type="ego_car" route="W2E" depart="1140" departSpeed="10" departLane="best"/>
   <vehicle id="hN2S_224" type="ego_car" route="N2S" depart="1147" departSpeed="10" departLane="best"/>
   <vehicle id="N2S_225" type="ego_car" route="N2S" depart="1153" departSpeed="10" departLane="best"/>
   <vehicle id="hN2S_226" type="ego_car" route="N2S" depart="1158" departSpeed="10" departLane="best"/>
   <vehicle id="hW2E_227" type="ego_car" route="W2E" depart="1168" departSpeed="10" departLane="best"/>
   <vehicle id="hN2S_228" type="ego_car" route="N2S" depart="1169" departSpeed="10" departLane="best"/>
   <vehicle id="W2E_229" type="ego_car" route="W2E" depart="1173" departSpeed="10" departLane="best"/>
   <vehicle id="hE2W_230" type="ego_car" route="E2W" depart="1184" departSpeed="10" departLane="best"/>
   <vehicle id="N2S_231" type="ego_car" route="N2S" depart="1184" departSpeed="10" departLane="best"/>
   <vehicle id="W2E_232" type="ego_car" route="W2E" depart="1185" departSpeed="10" departLane="best"/>
   <vehicle id="hS2N_233" type="ego_car" route="S2N" depart="1188" departSpeed="10" departLane="best"/>
   <vehicle id="hN2S_234" type="ego_car" route="N2S" depart="1189" departSpeed="10" departLane="best"/>
   <vehicle id="N2S_235" type="ego_car" route="N2S" depart="1189" departSpeed="10" departLane="best"/>
   <vehicle id="N2S_236" type="ego_car" route="N2S" depart="1192" departSpeed="10" departLane="best"/>
   <vehicle id="hS2N_237" type="ego_car" route="S2N" depart="1193" departSpeed="10" departLane="best"/>
   <vehicle id="E2W_238" type="ego_car" route="E2W" depart="1197" departSpeed="10" departLane="best"/>
   <vehicle id="hN2S_239" type="ego_car" route="N2S" depart="1198" departSpeed="10" departLane="best"/>
   <vehicle id="hE2W_240" type="ego_car" route="E2W" depart="1201" departSpeed="10" departLane="best"/>
   <vehicle id="hS2N_241" type="ego_car" route="S2N" depart="1202" departSpeed="10" departLane="best"/>
   <vehicle id="hE2W_242" type="ego_car" route="E2W" depart="1203" departSpeed="10" departLane="best"/>
   <vehicle id="hS2N_243" type="ego_car" route="S2N" depart="1210" departSpeed="10" departLane="best"/>
   <vehicle id="hE2W_244" type="ego_car" route="E2W" depart="1211" departSpeed="10" departLane="best"/>
   <vehicle id="W2E_245" type="ego_car" route="W2E" depart="1211" departSpeed="10" departLane="best"/>
   <vehicle id="hW2E_246" type="ego_car" route="W2E" depart="1214" departSpeed="10" departLane="best"/>
   <vehicle id="E2W_247" type="ego_car" route="E2W" depart="1216" departSpeed="10" departLane="best"/>
   <vehicle id="hS2N_248" type="ego_car" route="S2N" depart="1236" departSpeed="10" departLane="best"/>
   <vehicle id="hW2E_249" type="ego_car" route="W2E" depart="1236" departSpeed="10" departLane="best"/>
   <vehicle id="hW2E_250" type="ego_car" route="W2E" depart="1241" departSpeed="10" departLane="best"/>
   <vehicle id="hN2S_251" type="ego_car" route="N2S" depart="1244" departSpeed="10" departLane="best"/>
   <vehicle id="hW2E_252" type="ego_car" route="W2E" depart="1245" departSpeed="10" departLane="best"/>
   <vehicle id="S2N_253" type="ego_car" route="S2N" depart="1248" departSpeed="10" departLane="best"/>
   <vehicle id="hE2W_254" type="ego_car" route="E2W" depart="1248" departSpeed="10" departLane="best"/>
   <vehicle id="hN2S_255" type="ego_car" route="N2S" depart="1250" departSpeed="10" departLane="best"/>
   <vehicle id="hS2N_256" type="ego_car" route="S2N" depart="1262" departSpeed="10" departLane="best"/>
   <vehicle id="E2W_257" type="ego_car" route="E2W" depart="1269" departSpeed="10" departLane="best"/>
   <vehicle id="W2E_258" type="ego_car" route="W2E" depart="1269" departSpeed="10" departLane="best"/>
   <vehicle id="hE2W_259" type="ego_car" route="E2W" depart="1272" departSpeed="10" departLane="best"/>
   <vehicle id="hE2W_260" type="ego_car" route="E2W" depart="1274" departSpeed="10" departLane="best"/>
   <vehicle id="hE2W_261" type="ego_car" route="E2W" depart="1276" departSpeed="10" departLane="best"/>
   <vehicle id="hW2E_262" type="ego_car" route="W2E" depart="1276" departSpeed="10" departLane="best"/>
   <vehicle id="hW2E_263" type="ego_car" route="W2E" depart="1295" departSpeed="10" departLane="best"/>
   <vehicle id="S2N_264" type="ego_car" route="S2N" depart="1301" departSpeed="10" departLane="best"/>
   <vehicle id="hS2N_265" type="ego_car" route="S2N" depart="1305" departSpeed="10" departLane="best"/>
   <vehicle id="hS2N_266" type="ego_car" route="S2N" depart="1306" departSpeed="10" departLane="best"/>
   <vehicle id="hE2W_267" type="ego_car" route="E2W" depart="1308" departSpeed="10" departLane="best"/>
   <vehicle id="hS2N_268" type="ego_car" route="S2N" depart="1319" departSpeed="10" departLane="best"/>
   <vehicle id="hE2W_269" type="ego_car" route="E2W" depart="1319" departSpeed="10" departLane="best"/>
   <vehicle id="E2W_270" type="ego_car" route="E2W" depart="1322" departSpeed="10" departLane="best"/>
   <vehicle id="hW2E_271" type="ego_car" route="W2E" depart="1325" departSpeed="10" departLane="best"/>
   <vehicle id="hE2W_272" type="ego_car" route="E2W" depart="1329" departSpeed="10" departLane="best"/>
   <vehicle id="hN2S_273" type="ego_car" route="N2S" depart="1329" departSpeed="10" departLane="best"/>
   <vehicle id="hS2N_274" type="ego_car" route="S2N" depart="1331" departSpeed="10" departLane="best"/>
   <vehicle id="S2N_275" type="ego_car" route="S2N" depart="1337" departSpeed="10" departLane="best"/>
   <vehicle id="E2W_276" type="ego_car" route="E2W" depart="1348" departSpeed="10" departLane="best"/>
   <vehicle id="N2S_277" type="ego_car" route="N2S" depart="1354" departSpeed="10" departLane="best"/>
   <vehicle id="hN2S_278" type="ego_car" route="N2S" depart="1356" departSpeed="10" departLane="best"/>
   <vehicle id="hW2E_279" type="ego_car" route="W2E" depart="1363" departSpeed="10" departLane="best"/>
   <vehicle id="hE2W_280" type="ego_car" route="E2W" depart="1364" departSpeed="10" departLane="best"/>
   <vehicle id="hS2N_281" type="ego_car" route="S2N" depart="1367" departSpeed="10" departLane="best"/>
   <vehicle id="S2N_282" type="ego_car" route="S2N" depart="1373" departSpeed="10" departLane="best"/>
   <vehicle id="hS2N_283" type="ego_car" route="S2N" depart="1377" departSpeed="10" departLane="best"/>
   <vehicle id="hW2E_284" type="ego_car" route="W2E" depart="1377" departSpeed="10" departLane="best"/>
   <vehicle id="hS2N_285" type="ego_car" route="S2N" depart="1380" departSpeed="10" departLane="best"/>
   <vehicle id="hN2S_286" type="ego_car" route="N2S" depart="1380" departSpeed="10" departLane="best"/>
   <vehicle id="hS2N_287" type="ego_car" route="S2N" depart="1390" departSpeed="10" departLane="best"/>
   <vehicle id="N2S_288" type="ego_car" route="N2S" depart="1397" departSpeed="10" departLane="best"/>