<routes>

        <vType id = 'ego_car' vclass="evehicle" emissionClass="Energy" tau="1.5" accel="3.0" decel="3.0" color="#00FFFF" sigma="0.2" length="4.90" minGap="1.0" maxSpeed="20" carFollowing="IDM" guiShape="passenger"/>

        <route id="N2S" edges="NS -SN"/>
        <route id="S2N" edges="SN -NS"/>
        <route id="W2E" edges="WE -EW"/>
        <route id="E2W" edges="EW -WE"/>
   <vehicle id="hW2E_1" type="ego_car" route="W2E" depart="34" departSpeed="10" departLane="best"/>
   <vehicle id="N2S_2" type="ego_car" route="N2S" depart="41" departSpeed="10" departLane="best"/>
   <vehicle id="hN2S_3" type="ego_car" route="N2S" depart="54" departSpeed="10" departLane="best"/>
   <vehicle id="S2N_4" type="ego_car" route="S2N" depart="70" departSpeed="10" departLane="best"/>
   <vehicle id="hW2E_5" type="ego_car" route="W2E" depart="87" departSpeed="10" departLane="best"/>
   <vehicle id="hW2E_6" type="ego_car" route="W2E" depart="88" departSpeed="10" departLane="best"/>
   <vehicle id="hS2N_7" type="ego_car" route="S2N" depart="92" departSpeed="10" departLane="best"/>
   <vehicle id="S2N_8" type="ego_car" route="S2N" depart="92" departSpeed="10" departLane="best"/>
   <vehicle id="hE2W_9" type="ego_car" route="E2W" depart="99" departSpeed="10" departLane="best"/>
   <vehicle id="W2E_10" type="ego_car" route="W2E" depart="129" departSpeed="10" departLane="best"/>
   <vehicle id="S2N_11" type="ego_car" route="S2N" depart="141" departSpeed="10" departLane="best"/>
   <vehicle id="hE2W_12" type="ego_car" route="E2W" depart="142" departSpeed="10" departLane="best"/>
   <vehicle id="S2N_13" type="ego_car" route="S2N" depart="148" departSpeed="10" departLane="best"/>
   <vehicle id="S2N_14" type="ego_car" route="S2N" depart="159" departSpeed="10" departLane="best"/>
   <vehicle id="hE2W_15" type="ego_car" route="E2W" depart="174" departSpeed="10" departLane="best"/>
   <vehicle id="hS2N_16" type="ego_car" route="S2N" depart="187" departSpeed="10" departLane="best"/>
   <vehicle id="W2E_17" type="ego_car" route="W2E" depart="198" departSpeed="10" departLane="best"/>
   <vehicle id="hS2N_18" type="ego_car" route="S2N" depart="201" departSpeed="10" departLane="best"/>
   <vehicle id="hE2W_19" type="ego_car" route="E2W" depart="207" departSpeed="10" departLane="best"/>
   <vehicle id="E2W_20" type="ego_car" route="E2W" depart="209" departSpeed="10" departLane="best"/>
   <vehicle id="hW2E_21" type="ego_car" route="W2E" depart="212" departSpeed="10" departLane="best"/>
   <vehicle id="hN2S_22" type="ego_car" route="N2S" depart="217" departSpeed="10" departLane="best"/>
   <vehicle id="hN2S_23" type="ego_car" route="N2S" depart="226" departSpeed="10" departLane="best"/>
   <vehicle id="S2N_24" type="ego_car" route="S2N" depart="226" departSpeed="10" departLane="best"/>
   <vehicle id="hE2W_25" type="ego_car" route="E2W" depart="231" departSpeed="10" departLane="best"/>
   <vehicle id="hN2S_26" type="ego_car" route="N2S" depart="239" departSpeed="10" departLane="best"/>
   <vehicle id="S2N_27" type="ego_car" route="S2N" depart="260" departSpeed="10" departLane="best"/>
   <vehicle id="W2E_28" type="ego_car" route="W2E" depart="268" departSpeed="10" departLane="best"/>
   <vehicle id="hS2N_29" type="ego_car" route="S2N" depart="270" departSpeed="10" departLane="best"/>
   <vehicle id="hN2S_30" type="ego_car" route="N2S" depart="271" departSpeed="10" departLane="best"/>
   <vehicle id="hE2W_31" type="ego_car" route="E2W" depart="278" departSpeed="10" departLane="best"/>
   <vehicle id="hN2S_32" type="ego_car" route="N2S" depart="289" departSpeed="10" departLane="best"/>
   <vehicle id="hN2S_33" type="ego_car" route="N2S" depart="300" departSpeed="10" departLane="best"/>
   <vehicle id="hW2E_34" type="ego_car" route="W2E" depart="317" departSpeed="10" departLane="best"/>
   <vehicle id="hE2W_35" type="ego_car" route="E2W" depart="319" departSpeed="10" departLane="best"/>
   <vehicle id="hN2S_36" type="ego_car" route="N2S" depart="319" departSpeed="10" departLane="best"/>
   <vehicle id="hN2S_37" type="ego_car" route="N2S" depart="329" departSpeed="10" departLane="best"/>
   <vehicle id="hE2W_38" type="ego_car" route="E2W" depart="333" departSpeed="10" departLane="best"/>
   <vehicle id="hN2S_39" type="ego_car" route="N2S" depart="335" departSpeed="10" departLane="best"/>
   <vehicle id="hS2N_40" type="ego_car" route="S2N" depart="343" departSpeed="10" departLane="best"/>
   <vehicle id="hN2S_41" type="ego_car" route="N2S" depart="351" departSpeed="10" departLane="best"/>
   <vehicle id="S2N_42" type="ego_car" route="S2N" depart="357" departSpeed="10" departLane="best"/>
   <vehicle id="S2N_43" type="ego_car" route="S2N" depart="374" departSpeed="10" departLane="best"/>
   <vehicle id="hS2N_44" type="ego_car" route="S2N" depart="376" departSpeed="10" departLane="best"/>
   <vehicle id="S2N_45" type="ego_car" route="S2N" depart="379" departSpeed="10" departLane="best"/>
   <vehicle id="N2S_46" type="ego_car" route="N2S" depart="384" departSpeed="10" departLane="best"/>
   <vehicle id="N2S_47" type="ego_car" route="N2S" depart="386" departSpeed="10" departLane="best"/>
   <vehicle id="hE2W_48" type="ego_car" route="E2W" depart="394" departSpeed="10" departLane="best"/>
   <vehicle id="hS2N_49" type="ego_car" route="S2N" depart="396" departSpeed="10" departLane="best"/>
   <vehicle id="hS2N_50" type="ego_car" route="S2N" depart="399" departSpeed="10" departLane="best"/>
   <vehicle id="hS2N_51" type="ego_car" route="S2N" depart="400" departSpeed="10" departLane="best"/>
   <vehicle id="W2E_52" type="ego_car" route="W2E" depart="406" departSpeed="10" departLane="best"/>
   <vehicle id="hW2E_53" type="ego_car" route="W2E" depart="410" departSpeed="10" departLane="best"/>
   <vehicle id="hE2W_54" type="ego_car" route="E2W" depart="424" departSpeed="10" departLane="best"/>
   <vehicle id="hS2N_55" type="ego_car" route="S2N" depart="427" departSpeed="10" departLane="best"/>
   <vehicle id="hN2S_56" type="ego_car" route="N2S" depart="436" departSpeed="10" departLane="best"/>
   <vehicle id="S2N_57" type="ego_car" route="S2N" depart="436" departSpeed="10" departLane="best"/>
   <vehicle id="hS2N_58" type="ego_car" route="S2N" depart="441" departSpeed="10" departLane="best"/>
   <vehicle id="S2N_59" type="ego_car" route="S2N" depart="453" departSpeed="10" departLane="best"/>
   <vehicle id="hW2E_60" type="ego_car" route="W2E" depart="454" departSpeed="10" departLane="best"/>
   <vehicle id="hS2N_61" type="ego_car" route="S2N" depart="463" departSpeed="10" departLane="best"/>
   <vehicle id="hS2N_62" type="ego_car" route="S2N" depart="466" departSpeed="10" departLane="best"/>
   <vehicle id="hE2W_63" type="ego_car" route="E2W" depart="472" departSpeed="10" departLane="best"/>
   <vehicle id="hE2W_64" type="ego_car" route="E2W" depart="474" departSpeed="10" departLane="best"/>
   <vehicle id="hN2S_65" type="ego_car" route="N2S" depart="485" departSpeed="10" departLane="best"/>
   <vehicle id="hN2S_66" type="ego_car" route="N2S" depart="493" departSpeed="10" departLane="best"/>
   <vehicle id="E2W_67" type="ego_car" route="E2W" depart="498" departSpeed="10" departLane="best"/>
   <vehicle id="W2E_68" type="ego_car" route="W2E" depart="499" departSpeed="10" departLane="best"/>
   <vehicle id="hS2N_69" type="ego_car" route="S2N" depart="499" departSpeed="10" departLane="best"/>
   <vehicle id="hE2W_70" type="ego_car" route="E2W" depart="510" departSpeed="10" departLane="best"/>
   <vehicle id="N2S_71" type="ego_car" route="N2S" depart="514" departSpeed="10" departLane="best"/>
   <vehicle id="hS2N_72" type="ego_car" route="S2N" depart="523" departSpeed="10" departLane="best"/>
   <vehicle id="hE2W_73" type="ego_car" route="E2W" depart="524" departSpeed="10" departLane="best"/>
   <vehicle id="hE2W_74" type="ego_car" route="E2W" depart="525" departSpeed="10" departLane="best"/>
   <vehicle id="hS2N_75" type="ego_car" route="S2N" depart="526" departSpeed="10" departLane="best"/>
   <vehicle id="hW2E_76" type="ego_car" route="W2E" depart="531" departSpeed="10" departLane="best"/>
   <vehicle id="hN2S_77" type="ego_car" route="N2S" depart="532" departSpeed="10" departLane="best"/>
   <vehicle id="hS2N_78" type="ego_car" route="S2N" depart="542" departSpeed="10" departLane="best"/>
   <vehicle id="hE2W_79" type="ego_car" route="E2W" depart="544" departSpeed="10" departLane="best"/>
   <vehicle id="W2E_80" type="ego_car" route="W2E" depart="546" departSpeed="10" departLane="best"/>
   <vehicle id="hN2S_81" type="ego_car" route="N2S" depart="546" departSpeed="10" departLane="best"/>
   <vehicle id="hN2S_82" type="ego_car" route="N2S" depart="549" departSpeed="10" departLane="best"/>
   <vehicle id="hS2N_83" type="ego_car" route="S2N" depart="554" departSpeed="10" departLane="best"/>
   <vehicle id="hW2E_84" type="ego_car" route="W2E" depart="555" departSpeed="10" departLane="best"/>
   <vehicle id="hE2W_85" type="ego_car" route="E2W" depart="555" departSpeed="10" departLane="best"/>
   <vehicle id="S2N_86" type="ego_car" route="S2N" depart="556" departSpeed="10" departLane="best"/>
   <vehicle id="hW2E_87" type="ego_car" route="W2E" depart="558" departSpeed="10" departLane="best"/>
   <vehicle id="hE2W_88" type="ego_car" route="E2W" depart="562" departSpeed="10" departLane="best"/>
   <vehicle id="S2N_89" type="ego_car" route="S2N" depart="567" departSpeed="10" departLane="best"/>
   <vehicle id="W2E_90" type="ego_car" route="W2E" depart="568" departSpeed="10" departLane="best"/>
   <vehicle id="N2S_91" type="ego_car" route="N2S" depart="569" departSpeed="10" departLane="best"/>
   <vehicle id="hW2E_92" type="ego_car" route="W2E" depart="581" departSpeed="10" departLane="best"/>
   <vehicle id="hN2S_93" type="ego_car" route="N2S" depart="582" departSpeed="10" departLane="best"/>
   <vehicle id="hW2E_94" type="ego_car" route="W2E" depart="585" departSpeed="10" departLane="best"/>
   <vehicle id="S2N_95" type="ego_car" route="S2N" depart="590" departSpeed="10" departLane="best"/>
   <vehicle id="hW2E_96" type="ego_car" route="W2E" depart="591" departSpeed="10" departLane="best"/>
   <vehicle id="hS2N_97" type="ego_car" route="S2N" depart="593" departSpeed="10" departLane="best"/>
   <vehicle id="hW2E_98" type="ego_car" route="W2E" depart="598" departSpeed="10" departLane="best"/>
   <vehicle id="hE2W_99" type="ego_car" route="E2W" depart="600" departSpeed="10" departLane="best"/>
   <vehicle id="hN2S_100" type="ego_car" route="N2S" depart="602" departSpeed="10" departLane="best"/>
   <vehicle id="S2N_101" type="ego_car" route="S2N" depart="603" departSpeed="10" departLane="best"/>
   <vehicle id="hW2E_102" type="ego_car" route="W2E" depart="606" departSpeed="10" departLane="best"/>
   <vehicle id="hW2E_103" type="ego_car" route="W2E" depart="607" departSpeed="10" departLane="best"/>
   <vehicle id="hE2W_104" type="ego_car" route="E2W" depart="610" departSpeed="10" departLane="best"/>
   <vehicle id="hN2S_105" type="ego_car" route="N2S" depart="614" departSpeed="10" departLane="best"/>
   <vehicle id="hS2N_106" type="ego_car" route="S2N" depart="614" departSpeed="10" departLane="best"/>
   <vehicle id="S2N_107" type="ego_car" route="S2N" depart="618" departSpeed="10" departLane="best"/>
   <vehicle id="hS2N_108" type="ego_car" route="S2N" depart="618" departSpeed="10" departLane="best"/>
   <vehicle id="hE2W_109" type="ego_car" route="E2W" depart="637" departSpeed="10" departLane="best"/>
   <vehicle id="hN2S_110" type="ego_car" route="N2S" depart="638" departSpeed="10" departLane="best"/>
   <vehicle id="hE2W_111" type="ego_car" route="E2W" depart="644" departSpeed="10" departLane="best"/>
   <vehicle id="hW2E_112" type="ego_car" route="W2E" depart="647" departSpeed="10" departLane="best"/>
   <vehicle id="hS2N_113" type="ego_car" route="S2N" depart="656" departSpeed="10" departLane="best"/>
   <vehicle id="W2E_114" type="ego_car" route="W2E" depart="659" departSpeed="10" departLane="best"/>
   <vehicle id="hS2N_115" type="ego_car" route="S2N" depart="661" departSpeed="10" departLane="best"/>
   <vehicle id="hS2N_116" type="ego_car" route="S2N" depart="663" departSpeed="10" departLane="best"/>
   <vehicle id="hN2S_117" type="ego_car" route="N2S" depart="664" departSpeed="10" departLane="best"/>
   <vehicle id="hW2E_118" type="ego_car" route="W2E" depart="669" departSpeed="10" departLane="best"/>
   <vehicle id="hW2E_119" type="ego_car" route="W2E" depart="669" departSpeed="10" departLane="best"/>
   <vehicle id="W2E_120" type="ego_car" route="W2E" depart="673" departSpeed="10" departLane="best"/>
   <vehicle id="hN2S_121" type="ego_car" route="N2S" depart="675" departSpeed="10" departLane="best"/>
   <vehicle id="hW2E_122" type="ego_car" route="W2E" depart="677" departSpeed="10" departLane="best"/>
   <vehicle id="hS2N_123" type="ego_car" route="S2N" depart="677" departSpeed="10" departLane="best"/>
   <vehicle id="hW2E_124" type="ego_car" route="W2E" depart="678" departSpeed="10" departLane="best"/>
   <vehicle id="S2N_125" type="ego_car" route="S2N" depart="678" departSpeed="10" departLane="best"/>
   <vehicle id="hN2S_126" type="ego_car" route="N2S" depart="679" departSpeed="10" departLane="best"/>
   <vehicle id="E2W_127" type="ego_car" route="E2W" depart="682" departSpeed="10" departLane="best"/>
   <vehicle id="hE2W_128" type="ego_car" route="E2W" depart="683" departSpeed="10" departLane="best"/>
   <vehicle id="hW2E_129" type="ego_car" route="W2E" depart="685" departSpeed="10" departLane="best"/>
   <vehicle id="hN2S_130" type="ego_car" route="N2S" depart="687" departSpeed="10" departLane="best"/>
   <vehicle id="hE2W_131" type="ego_car" route="E2W" depart="693" departSpeed="10" departLane="best"/>
   <vehicle id="S2N_132" type="ego_car" route="S2N" depart="695" departSpeed="10" departLane="best"/>
   <vehicle id="hW2E_133" type="ego_car" route="W2E" depart="697" departSpeed="10" departLane="best"/>
   <vehicle id="hS2N_134" type="ego_car" route="S2N" depart="698" departSpeed="10" departLane="best"/>
   <vehicle id="S2N_135" type="ego_car" route="S2N" depart="700" departSpeed="10" departLane="best"/>
   <vehicle id="hE2W_136" type="ego_car" route="E2W" depart="701" departSpeed="10" departLane="best"/>
   <vehicle id="W2E_137" type="ego_car" route="W2E" depart="702" departSpeed="10" departLane="best"/>
   <vehicle id="hS2N_138" type="ego_car" route="S2N" depart="702" departSpeed="10" departLane="best"/>
   <vehicle id="hS2N_139" type="ego_car" route="S2N" depart="704" departSpeed="10" departLane="best"/>
   <vehicle id="E2W_140" type="ego_car" route="E2W" depart="705" departSpeed="10" departLane="best"/>
   <vehicle id="hS2N_141" type="ego_car" route="S2N" depart="705" departSpeed="10" departLane="best"/>
   <vehicle id="hS2N_142" type="ego_car" route="S2N" depart="710" departSpeed="10" departLane="best"/>
   <vehicle id="hS2N_143" type="ego_car" route="S2N" depart="713" departSpeed="10" departLane="best"/>
   <vehicle id="hS2N_144" type="ego_car" route="S2N" depart="714" departSpeed="10" departLane="best"/>
   <vehicle id="hW2E_145" type="ego_car" route="W2E" depart="715" departSpeed="10" departLane="best"/>
   <vehicle id="N2S_146" type="ego_car" route="N2S" depart="718" departSpeed="10" departLane="best"/>
   <vehicle id="hW2E_147" type="ego_car" route="W2E" depart="718" departSpeed="10" departLane="best"/>
   <vehicle id="hE2W_148" type="ego_car" route="E2W" depart="722" departSpeed="10" departLane="best"/>
   <vehicle id="S2N_149" type="ego_car" route="S2N" depart="726" departSpeed="10" departLane="best"/>
   <vehicle id="hN2S_150" type="ego_car" route="N2S" depart="729" departSpeed="10" departLane="best"/>
   <vehicle id="hW2E_151" type="ego_car" route="W2E" depart="730" departSpeed="10" departLane="best"/>
   <vehicle id="hE2W_152" type="ego_car" route="E2W" depart="732" departSpeed="10" departLane="best"/>
   <vehicle id="hE2W_153" type="ego_car" route="E2W" depart="733" departSpeed="10" departLane="best"/>
   <vehicle id="hS2N_154" type="ego_car" route="S2N" depart="733" departSpeed="10" departLane="best"/>
   <vehicle id="N2S_155" type="ego_car" route="N2S" depart="739" departSpeed="10" departLane="best"/>
   <vehicle id="S2N_156" type="ego_car" route="S2N" depart="740" departSpeed="10" departLane="best"/>
   <vehicle id="hE2W_157" type="ego_car" route="E2W" depart="745" departSpeed="10" departLane="best"/>
   <vehicle id="hS2N_158" type="ego_car" route="S2N" depart="746" departSpeed="10" departLane="best"/>
   <vehicle id="N2S_159" type="ego_car" route="N2S" depart="748" departSpeed="10" departLane="best"/>
   <vehicle id="S2N_160" type="ego_car" route="S2N" depart="753" departSpeed="10" departLane="best"/>
   <vehicle id="W2E_161" type="ego_car" route="W2E" depart="755" departSpeed="10" departLane="best"/>
   <vehicle id="hW2E_162" type="ego_car" route="W2E" depart="760" departSpeed="10" departLane="best"/>
   <vehicle id="S2N_163" type="ego_car" route="S2N" depart="761" departSpeed="10" departLane="best"/>
   <vehicle id="hS2N_164" type="ego_car" route="S2N" depart="762" departSpeed="10" departLane="best"/>
   <vehicle id="hW2E_165" type="ego_car" route="W2E" depart="764" departSpeed="10" departLane="best"/>
   <vehicle id="W2E_166" type="ego_car" route="W2E" depart="766" departSpeed="10" departLane="best"/>
   <vehicle id="N2S_167" type="ego_car" route="N2S" depart="770" departSpeed="10" departLane="best"/>
   <vehicle id="hS2N_168" type="ego_car" route="S2N" depart="776" departSpeed="10" departLane="best"/>
   <vehicle id="N2S_169" type="ego_car" route="N2S" depart="779" departSpeed="10" departLane="best"/>
   <vehicle id="W2E_170" type="ego_car" route="W2E" depart="781" departSpeed="10" departLane="best"/>
   <vehicle id="hE2W_171" type="ego_car" route="E2W" depart="782" departSpeed="10" departLane="best"/>
   <vehicle id="hE2W_172" type="ego_car" route="E2W" depart="782" departSpeed="10" departLane="best"/>
   <vehicle id="hS2N_173" type="ego_car" route="S2N" depart="789" departSpeed="10" departLane="best"/>
   <vehicle id="hW2E_174" type="ego_car" route="W2E" depart="792" departSpeed="10" departLane="best"/>
   <vehicle id="hN2S_175" type="ego_car" route="N2S" depart="796" departSpeed="10" departLane="best"/>
   <vehicle id="W2E_176" type="ego_car" route="W2E" depart="796" departSpeed="10" departLane="best"/>
   <vehicle id="E2W_177" type="ego_car" route="E2W" depart="797" departSpeed="10" departLane="best"/>
   <vehicle id="hW2E_178" type="ego_car" route="W2E" depart="800" departSpeed="10" departLane="best"/>
   <vehicle id="hN2S_179" type="ego_car" route="N2S" depart="801" departSpeed="10" departLane="best"/>
   <vehicle id="hS2N_180" type="ego_car" route="S2N" depart="812" departSpeed="10" departLane="best"/>
   <vehicle id="hE2W_181" type="ego_car" route="E2W" depart="813" departSpeed="10" departLane="best"/>
   <vehicle id="hN2S_182" type="ego_car" route="N2S" depart="816" departSpeed="10" departLane="best"/>
   <vehicle id="hS2N_183" type="ego_car" route="S2N" depart="816" departSpeed="10" departLane="best"/>
   <vehicle id="S2N_184" type="ego_car" route="S2N" depart="818" departSpeed="10" departLane="best"/>
   <vehicle id="hN2S_185" type="ego_car" route="N2S" depart="820" departSpeed="10" departLane="best"/>
   <vehicle id="hE2W_186" type="ego_car" route="E2W" depart="823" departSpeed="10" departLane="best"/>
   <vehicle id="hW2E_187" type="ego_car" route="W2E" depart="823" departSpeed="10" departLane="best"/>
   <vehicle id="E2W_188" type="ego_car" route="E2W" depart="824" departSpeed="10" departLane="best"/>
   <vehicle id="S2N_189" type="ego_car" route="S2N" depart="829" departSpeed="10" departLane="best"/>
   <vehicle id="hE2W_190" type="ego_car" route="E2W" depart="833" departSpeed="10" departLane="best"/>
   <vehicle id="hS2N_191" type="ego_car" route="S2N" depart="836" departSpeed="10" departLane="best"/>
   <vehicle id="hN2S_192" type="ego_car" route="N2S" depart="847" departSpeed="10" departLane="best"/>
   <vehicle id="S2N_193" type="ego_car" route="S2N" depart="851" departSpeed="10" departLane="best"/>
   <vehicle id="hW2E_194" type="ego_car" route="W2E" depart="855" departSpeed="10" departLane="best"/>
   <vehicle id="hS2N_195" type="ego_car" route="S2N" depart="858" departSpeed="10" departLane="best"/>
   <vehicle id="hN2S_196" type="ego_car" route="N2S" depart="862" departSpeed="10" departLane="best"/>
   <vehicle id="hW2E_197" type="ego_car" route="W2E" depart="862" departSpeed="10" departLane="best"/>
   <vehicle id="E2W_198" type="ego_car" route="E2W" depart="863" departSpeed="10" departLane="best"/>
   <vehicle id="hS2N_199" type="ego_car" route="S2N" depart="864" departSpeed="10" departLane="best"/>
   <vehicle id="hS2N_200" type="ego_car" route="S2N" depart="875" departSpeed="10" departLane="best"/>
   <vehicle id="hW2E_201" type="ego_car" route="W2E" depart="878" departSpeed="10" departLane="best"/>
   <vehicle id="hN2S_202" type="ego_car" route="N2S" depart="885" departSpeed="10" departLane="best"/>
   <vehicle id="hW2E_203" type="ego_car" route="W2E" depart="888" departSpeed="10" departLane="best"/>
   <vehicle id="S2N_204" type="ego_car" route="S2N" depart="889" departSpeed="10" departLane="best"/>
   <vehicle id="hS2N_205" type="ego_car" route="S2N" depart="890" departSpeed="10" departLane="best"/>
   <vehicle id="S2N_206" type="ego_car" route="S2N" depart="892" departSpeed="10" departLane="best"/>
   <vehicle id="hS2N_207" type="ego_car" route="S2N" depart="894" departSpeed="10" departLane="best"/>
   <vehicle id="E2W_208" type="ego_car" route="E2W" depart="895" departSpeed="10" departLane="best"/>
   <vehicle id="hS2N_209" type="ego_car" route="S2N" depart="896" departSpeed="10" departLane="best"/>
   <vehicle id="hE2W_210" type="ego_car" route="E2W" depart="902" departSpeed="10" departLane="best"/>
   <vehicle id="hE2W_211" type="ego_car" route="E2W" depart="906" departSpeed="10" departLane="best"/>
   <vehicle id="hE2W_212" type="ego_car" route="E2W" depart="907" departSpeed="10" departLane="best"/>
   <vehicle id="hS2N_213" type="ego_car" route="S2N" depart="908" departSpeed="10" departLane="best"/>
   <vehicle id="hN2S_214" type="ego_car" route="N2S" depart="909" departSpeed="10" departLane="best"/>
   <vehicle id="hE2W_215" type="ego_car" route="E2W" depart="913" departSpeed="10" departLane="best"/>
   <vehicle id="hS2N_216" type="ego_car" route="S2N" depart="915" departSpeed="10" departLane="best"/>
   <vehicle id="hE2W_217" type="ego_car" route="E2W" depart="920" departSpeed="10" departLane="best"/>
   <vehicle id="hE2W_218" type="ego_car" route="E2W" depart="923" departSpeed="10" departLane="best"/>
   <vehicle id="N2S_219" type="ego_car" route="N2S" depart="931" departSpeed="10" departLane="best"/>
   <vehicle id="hS2N_220" type="ego_car" route="S2N" depart="934" departSpeed="10" departLane="best"/>
   <vehicle id="hW2E_221" type="ego_car" route="W2E" depart="936" departSpeed="10" departLane="best"/>
   <vehicle id="hW2E_222" type="ego_car" route="W2E" depart="939" departSpeed="10" departLane="best"/>
   <vehicle id="hW2E_223" type="ego_car" route="W2E" depart="944" departSpeed="10" departLane="best"/>
   <vehicle id="hE2W_224" type="ego_car" route="E2W" depart="949" departSpeed="10" departLane="best"/>
   <vehicle id="E2W_225" type="ego_car" route="E2W" depart="949" departSpeed="10" departLane="best"/>
   <vehicle id="hE2W_226" type="ego_car" route="E2W" depart="950" departSpeed="10" departLane="best"/>
   <vehicle id="hS2N_227" type="ego_car" route="S2N" depart="955" departSpeed="10" departLane="best"/>
   <vehicle id="hW2E_228" type="ego_car" route="W2E" depart="956" departSpeed="10" departLane="best"/>
   <vehicle id="N2S_229" type="ego_car" route="N2S" depart="959" departSpeed="10" departLane="best"/>
   <vehicle id="hN2S_230" type="ego_car" route="N2S" depart="965" departSpeed="10" departLane="best"/>
   <vehicle id="E2W_231" type="ego_car" route="E2W" depart="977" departSpeed="10" departLane="best"/>
   <vehicle id="E2W_232" type="ego_car" route="E2W" depart="985" departSpeed="10" departLane="best"/>
   <vehicle id="hN2S_233" type="ego_car" route="N2S" depart="988" departSpeed="10" departLane="best"/>
   <vehicle id="hE2W_234" type="ego_car" route="E2W" depart="988" departSpeed="10" departLane="best"/>
   <vehicle id="N2S_235" type="ego_car" route="N2S" depart="990" departSpeed="10" departLane="best"/>
   <vehicle id="E2W_236" type="ego_car" route="E2W" depart="993" departSpeed="10" departLane="best"/>
   <vehicle id="hS2N_237" type="ego_car" route="S2N" depart="995" departSpeed="10" departLane="best"/>
   <vehicle id="E2W_238" type="ego_car" route="E2W" depart="997" departSpeed="10" departLane="best"/>
   <vehicle id="hW2E_239" type="ego_car" route="W2E" depart="1002" departSpeed="10" departLane="best"/>
   <vehicle id="hS2N_240" type="ego_car" route="S2N" depart="1013" departSpeed="10" departLane="best"/>
   <vehicle id="hE2W_241" type="ego_car" route="E2W" depart="1017" departSpeed="10" departLane="best"/>
   <vehicle id="hN2S_242" type="ego_car" route="N2S" depart="1018" departSpeed="10" departLane="best"/>
   <vehicle id="hW2E_243" type="ego_car" route="W2E" depart="1019" departSpeed="10" departLane="best"/>
   <vehicle id="hS2N_244" type="ego_car" route="S2N" depart="1030" departSpeed="10" departLane="best"/>
   <vehicle id="W2E_245" type="ego_car" route="W2E" depart="1031" departSpeed="10" departLane="best"/>
   <vehicle id="hS2N_246" type="ego_car" route="S2N" depart="1032" departSpeed="10" departLane="best"/>
   <vehicle id="E2W_247" type="ego_car" route="E2W" depart="1040" departSpeed="10" departLane="best"/>
   <vehicle id="hE2W_248" type="ego_car" route="E2W" depart="1040" departSpeed="10" departLane="best"/>
   <vehicle id="hN2S_249" type="ego_car" route="N2S" depart="1048" departSpeed="10" departLane="best"/>
   <vehicle id="hS2N_250" type="ego_car" route="S2N" depart="1048" departSpeed="10" departLane="best"/>
   <vehicle id="hS2N_251" type="ego_car" route="S2N" depart="1053" departSpeed="10" departLane="best"/>
   <vehicle id="hE2W_252" type="ego_car" route="E2W" depart="1056" departSpeed="10" departLane="best"/>
   <vehicle id="W2E_253" type="ego_car" route="W2E" depart="1057" departSpeed="10" departLane="best"/>
   <vehicle id="hW2E_254" type="ego_car" route="W2E" depart="1065" departSpeed="10" departLane="best"/>
   <vehicle id="hN2S_255" type="ego_car" route="N2S" depart="1068" departSpeed="10" departLane="best"/>
   <vehicle id="hW2E_256" type="ego_car" route="W2E" depart="1070" departSpeed="10" departLane="best"/>
   <vehicle id="E2W_257" type="ego_car" route="E2W" depart="1073" departSpeed="10" departLane="best"/>
   <vehicle id="N2S_258" type="ego_car" route="N2S" depart="1075" departSpeed="10" departLane="best"/>
   <vehicle id="hW2E_259" type="ego_car" route="W2E" depart="1075" departSpeed="10" departLane="best"/>
   <vehicle id="hE2W_260" type="ego_car" route="E2W" depart="1075" departSpeed="10" departLane="best"/>
   <vehicle id="hW2E_261" type="ego_car" route="W2E" depart="1076" departSpeed="10" departLane="best"/>
   <vehicle id="hS2N_262" type="ego_car" route="S2N" depart="1077" departSpeed="10" departLane="best"/>
   <vehicle id="hS2N_263" type="ego_car" route="S2N" depart="1077" departSpeed="10" departLane="best"/>
   <vehicle id="S2N_264" type="ego_car" route="S2N" depart="1079" departSpeed="10" departLane="best"/>
   <vehicle id="hE2W_265" type="ego_car" route="E2W" depart="1081" departSpeed="10" departLane="best"/>
   <vehicle id="hN2S_266" type="ego_car" route="N2S" depart="1082" departSpeed="10" departLane="best"/>
   <vehicle id="hN2S_267" type="ego_car" route="N2S" depart="1083" departSpeed="10" departLane="best"/>
   <vehicle id="hN2S_268" type="ego_car" route="N2S" depart="1087" departSpeed="10" departLane="best"/>
   <vehicle id="hN2S_269" type="ego_car" route="N2S" depart="1088" departSpeed="10" departLane="best"/>
   <vehicle id="S2N_270" type="ego_car" route="S2N" depart="1088" departSpeed="10" departLane="best"/>
   <vehicle id="hW2E_271" type="ego_car" route="W2E" depart="1089" departSpeed="10" departLane="best"/>
   <vehicle id="hN2S_272" type="ego_car" route="N2S" depart="1106" departSpeed="10" departLane="best"/>
   <vehicle id="hW2E_273" type="ego_car" route="W2E" depart="1109" departSpeed="10" departLane="best"/>
   <vehicle id="hN2S_274" type="ego_car" route="N2S" depart="1112" departSpeed="10" departLane="best"/>
   <vehicle id="N2S_275" type="ego_car" route="N2S" depart="1112" departSpeed="10" departLane="best"/>
   <vehicle id="W2E_276" type="ego_car" route="W2E" depart="1112" departSpeed="10" departLane="best"/>
   <vehicle id="W2E_277" type="ego_car" route="W2E" depart="1118" departSpeed="10" departLane="best"/>
   <vehicle id="hE2W_278" type="ego_car" route="E2W" depart="1145" departSpeed="10" departLane="best"/>
   <vehicle id="hN2S_279" type="ego_car" route="N2S" depart="1149" departSpeed="10" departLane="best"/>
   <vehicle id="hE2W_280" type="ego_car" route="E2W" depart="1151" departSpeed="10" departLane="best"/>
   <vehicle id="hS2N_281" type="ego_car" route="S2N" depart="1151" departSpeed="10" departLane="best"/>
   <vehicle id="S2N_282" type="ego_car" route="S2N" depart="1151" departSpeed="10" departLane="best"/>
   <vehicle id="hW2E_283" type="ego_car" route="W2E" depart="1154" departSpeed="10" departLane="best"/>
   <vehicle id="hW2E_284" type="ego_car" route="W2E" depart="1156" departSpeed="10" departLane="best"/>
   <vehicle id="hE2W_285" type="ego_car" route="E2W" depart="1157" departSpeed="10" departLane="best"/>
   <vehicle id="hN2S_286" type="ego_car" route="N2S" depart="1165" departSpeed="10" departLane="best"/>
   <vehicle id="hW2E_287" type="ego_car" route="W2E" depart="1171" departSpeed="10" departLane="best"/>
   <vehicle id="E2W_288" type="ego_car" route="E2W" depart="1172" departSpeed="10" departLane="best"/>