<routes>

        <vType id = 'ego_car' vclass="evehicle" emissionClass="Energy" tau="1.5" accel="3.0" decel="3.0" color="#00FFFF" sigma="0.2" length="4.90" minGap="1.0" maxSpeed="20" carFollowing="IDM" guiShape="passenger"/>

        <route id="N2S" edges="NS -SN"/>
        <route id="S2N" edges="SN -NS"/>
        <route id="W2E" edges="WE -EW"/>
        <route id="E2W" edges="EW -WE"/>
   <vehicle id="hN2S_1" type="ego_car" route="N2S" depart="66" departSpeed="10" departLane="best"/>
   <vehicle id="W2E_2" type="ego_car" route="W2E" depart="108" departSpeed="10" departLane="best"/>
   <vehicle id="hN2S_3" type="ego_car" route="N2S" depart="109" departSpeed="10" departLane="best"/>
   <vehicle id="E2W_4" type="ego_car" route="E2W" depart="111" departSpeed="10" departLane="best"/>
   <vehicle id="hW2E_5" type="ego_car" route="W2E" depart="117" departSpeed="10" departLane="best"/>
   <vehicle id="hE2W_6" type="ego_car" route="E2W" depart="119" departSpeed="10" departLane="best"/>
   <vehicle id="hE2W_7" type="ego_car" route="E2W" depart="147" departSpeed="10" departLane="best"/>
   <vehicle id="N2S_8" type="ego_car" route="N2S" depart="195" departSpeed="10" departLane="best"/>
   <vehicle id="hE2W_9" type="ego_car" route="E2W" depart="202" departSpeed="10" departLane="best"/>
   <vehicle id="E2W_10" type="ego_car" route="E2W" depart="212" departSpeed="10" departLane="best"/>
   <vehicle id="N2S_11" type="ego_car" route="N2S" depart="215" departSpeed="10" departLane="best"/>
   <vehicle id="hN2S_12" type="ego_car" route="N2S" depart="252" departSpeed="10" departLane="best"/>
   <vehicle id="S2N_13" type="ego_car" route="S2N" depart="254" departSpeed="10" departLane="best"/>
   <vehicle id="S2N_14" type="ego_car" route="S2N" depart="261" departSpeed="10" departLane="best"/>
   <vehicle id="hS2N_15" type="ego_car" route="S2N" depart="264" departSpeed="10" departLane="best"/>
   <vehicle id="hS2N_16" type="ego_car" route="S2N" depart="266" departSpeed="10" departLane="best"/>
   <vehicle id="E2W_17" type="ego_car" route="E2W" depart="281" departSpeed="10" departLane="best"/>
   <vehicle id="hE2W_18" type="ego_car" route="E2W" depart="290" departSpeed="10" departLane="best"/>
   <vehicle id="hE2W_19" type="ego_car" route="E2W" depart="297" departSpeed="10" departLane="best"/>
   <vehicle id="S2N_20" type="ego_car" route="S2N" depart="302" departSpeed="10" departLane="best"/>
   <vehicle id="hE2W_21" type="ego_car" route="E2W" depart="308" departSpeed="10" departLane="best"/>
   <vehicle id="hW2E_22" type="ego_car" route="W2E" depart="312" departSpeed="10" departLane="best"/>
   <vehicle id="hN2S_23" type="ego_car" route="N2S" depart="315" departSpeed="10" departLane="best"/>
   <vehicle id="W2E_24" type="ego_car" route="W2E" depart="318" departSpeed="10" departLane="best"/>
   <vehicle id="hS2N_25" type="ego_car" route="S2N" depart="318" departSpeed="10" departLane="best"/>
   <vehicle id="hW2E_26" type="ego_car" route="W2E" depart="320" departSpeed="10" departLane="best"/>
   <vehicle id="E2W_27" type="ego_car" route="E2W" depart="322" departSpeed="10" departLane="best"/>
   <vehicle id="N2S_28" type="ego_car" route="N2S" depart="337" departSpeed="10" departLane="best"/>
   <vehicle id="hS2N_29" type="ego_car" route="S2N" depart="339" departSpeed="10" departLane="best"/>
   <vehicle id="hN2S_30" type="ego_car" route="N2S" depart="339" departSpeed="10" departLane="best"/>
   <vehicle id="hE2W_31" type="ego_car" route="E2W" depart="340" departSpeed="10" departLane="best"/>
   <vehicle id="hE2W_32" type="ego_car" route="E2W" depart="341" departSpeed="10" departLane="best"/>
   <vehicle id="hN2S_33" type="ego_car" route="N2S" depart="349" departSpeed="10" departLane="best"/>
   <vehicle id="hN2S_34" type="ego_car" route="N2S" depart="381" departSpeed="10" departLane="best"/>
   <vehicle id="hW2E_35" type="ego_car" route="W2E" depart="393" departSpeed="10" departLane="best"/>
   <vehicle id="hN2S_36" type="ego_car" route="N2S" depart="400" departSpeed="10" departLane="best"/>
   <vehicle id="hE2W_37" type="ego_car" route="E2W" depart="423" departSpeed="10" departLane="best"/>
   <vehicle id="hN2S_38" type="ego_car" route="N2S" depart="429" departSpeed="10" departLane="best"/>
   <vehicle id="hS2N_39" type="ego_car" route="S2N" depart="430" departSpeed="10" departLane="best"/>
   <vehicle id="hS2N_40" type="ego_car" route="S2N" depart="433" departSpeed="10" departLane="best"/>
   <vehicle id="hN2S_41" type="ego_car" route="N2S" depart="433" departSpeed="10" departLane="best"/>
   <vehicle id="N2S_42" type="ego_car" route="N2S" depart="439" departSpeed="10" departLane="best"/>
   <vehicle id="E2W_43" type="ego_car" route="E2W" depart="443" departSpeed="10" departLane="best"/>
   <vehicle id="hS2N_44" type="ego_car" route="S2N" depart="448" departSpeed="10" departLane="best"/>
   <vehicle id="N2S_45" type="ego_car" route="N2S" depart="452" departSpeed="10" departLane="best"/>
   <vehicle id="E2W_46" type="ego_car" route="E2W" depart="452" departSpeed="10" departLane="best"/>
   <vehicle id="S2N_47" type="ego_car" route="S2N" depart="454" departSpeed="10" departLane="best"/>
   <vehicle id="hE2W_48" type="ego_car" route="E2W" depart="460" departSpeed="10" departLane="best"/>
   <vehicle id="hN2S_49" type="ego_car" route="N2S" depart="469" departSpeed="10" departLane="best"/>
   <vehicle id="hE2W_50" type="ego_car" route="E2W" depart="481" departSpeed="10" departLane="best"/>
   <vehicle id="hW2E_51" type="ego_car" route="W2E" depart="484" departSpeed="10" departLane="best"/>
   <vehicle id="E2W_52" type="ego_car" route="E2W" depart="484" departSpeed="10" departLane="best"/>
   <vehicle id="hE2W_53" type="ego_car" route="E2W" depart="487" departSpeed="10" departLane="best"/>
   <vehicle id="hN2S_54" type="ego_car" route="N2S" depart="488" departSpeed="10" departLane="best"/>
   <vehicle id="hW2E_55" type="ego_car" route="W2E" depart="494" departSpeed="10" departLane="best"/>
   <vehicle id="hS2N_56" type="ego_car" route="S2N" depart="496" departSpeed="10" departLane="best"/>
   <vehicle id="S2N_57" type="ego_car" route="S2N" depart="499" departSpeed="10" departLane="best"/>
   <vehicle id="hW2E_58" type="ego_car" route="W2E" depart="501" departSpeed="10" departLane="best"/>
   <vehicle id="N2S_59" type="ego_car" route="N2S" depart="507" departSpeed="10" departLane="best"/>
   <vehicle id="hW2E_60" type="ego_car" route="W2E" depart="508" departSpeed="10" departLane="best"/>
   <vehicle id="hW2E_61" type="ego_car" route="W2E" depart="512" departSpeed="10" departLane="best"/>
   <vehicle id="hS2N_62" type="ego_car" route="S2N" depart="520" departSpeed="10" departLane="best"/>
   <vehicle id="hS2N_63" type="ego_car" route="S2N" depart="523" departSpeed="10" departLane="best"/>
   <vehicle id="hW2E_64" type="ego_car" route="W2E" depart="524" departSpeed="10" departLane="best"/>
   <vehicle id="hW2E_65" type="ego_car" route="W2E" depart="530" departSpeed="10" departLane="best"/>
   <vehicle id="hS2N_66" type="ego_car" route="S2N" depart="535" departSpeed="10" departLane="best"/>
   <vehicle id="N2S_67" type="ego_car" route="N2S" depart="545" departSpeed="10" departLane="best"/>
   <vehicle id="S2N_68" type="ego_car" route="S2N" depart="552" departSpeed="10" departLane="best"/>
   <vehicle id="hE2W_69" type="ego_car" route="E2W" depart="554" departSpeed="10" departLane="best"/>
   <vehicle id="hN2S_70" type="ego_car" route="N2S" depart="559" departSpeed="10" departLane="best"/>
   <vehicle id="W2E_71" type="ego_car" route="W2E" depart="573" departSpeed="10" departLane="best"/>
   <vehicle id="hW2E_72" type="ego_car" route="W2E" depart="577" departSpeed="10" departLane="best"/>
   <vehicle id="hS2N_73" type="ego_car" route="S2N" depart="590" departSpeed="10" departLane="best"/>
   <vehicle id="hE2W_74" type="ego_car" route="E2W" depart="603" departSpeed="10" departLane="best"/>
   <vehicle id="hW2E_75" type="ego_car" route="W2E" depart="605" departSpeed="10" departLane="best"/>
   <vehicle id="hN2S_76" type="ego_car" route="N2S" depart="612" departSpeed="10" departLane="best"/>
   <vehicle id="hE2W_77" type="ego_car" route="E2W" depart="614" departSpeed="10" departLane="best"/>
   <vehicle id="hW2E_78" type="ego_car" route="W2E" depart="621" departSpeed="10" departLane="best"/>
   <vehicle id="hS2N_79" type="ego_car" route="S2N" depart="632" departSpeed="10" departLane="best"/>
   <vehicle id="S2N_80" type="ego_car" route="S2N" depart="633" departSpeed="10" departLane="best"/>
   <vehicle id="hS2N_81" type="ego_car" route="S2N" depart="636" departSpeed="10" departLane="best"/>
   <vehicle id="hE2W_82" type="ego_car" route="E2W" depart="637" departSpeed="10" departLane="best"/>
   <vehicle id="hE2W_83" type="ego_car" route="E2W" depart="639" departSpeed="10" departLane="best"/>
   <vehicle id="hS2N_84" type="ego_car" route="S2N" depart="642" departSpeed="10" departLane="best"/>
   <vehicle id="hW2E_85" type="ego_car" route="W2E" depart="650" departSpeed="10" departLane="best"/>
   <vehicle id="S2N_86" type="ego_car" route="S2N" depart="653" departSpeed="10" departLane="best"/>
   <vehicle id="hS2N_87" type="ego_car" route="S2N" depart="657" departSpeed="10" departLane="best"/>
   <vehicle id="hS2N_88" type="ego_car" route="S2N" depart="657" departSpeed="10" departLane="best"/>
   <vehicle id="S2N_89" type="ego_car" route="S2N" depart="664" departSpeed="10" departLane="best"/>
   <vehicle id="S2N_90" type="ego_car" route="S2N" depart="666" departSpeed="10" departLane="best"/>
   <vehicle id="W2E_91" type="ego_car" route="W2E" depart="668" departSpeed="10" departLane="best"/>
   <vehicle id="hE2W_92" type="ego_car" route="E2W" depart="669" departSpeed="10" departLane="best"/>
   <vehicle id="hW2E_93" type="ego_car" route="W2E" depart="677" departSpeed="10" departLane="best"/>
   <vehicle id="hW2E_94" type="ego_car" route="W2E" depart="678" departSpeed="10" departLane="best"/>
   <vehicle id="N2S_95" type="ego_car" route="N2S" depart="682" departSpeed="10" departLane="best"/>
   <vehicle id="hE2W_96" type="ego_car" route="E2W" depart="684" departSpeed="10" departLane="best"/>
   <vehicle id="hS2N_97" type="ego_car" route="S2N" depart="687" departSpeed="10" departLane="best"/>
   <vehicle id="hN2S_98" type="ego_car" route="N2S" depart="691" departSpeed="10" departLane="best"/>
   <vehicle id="hN2S_99" type="ego_car" route="N2S" depart="693" departSpeed="10" departLane="best"/>
   <vehicle id="hS2N_100" type="ego_car" route="S2N" depart="695" departSpeed="10" departLane="best"/>
   <vehicle id="S2N_101" type="ego_car" route="S2N" depart="696" departSpeed="10" departLane="best"/>
   <vehicle id="hE2W_102" type="ego_car" route="E2W" depart="702" departSpeed="10" departLane="best"/>
   <vehicle id="hE2W_103" type="ego_car" route="E2W" depart="708" departSpeed="10" departLane="best"/>
   <vehicle id="hE2W_104" type="ego_car" route="E2W" depart="710" departSpeed="10" departLane="best"/>
   <vehicle id="hE2W_105" type="ego_car" route="E2W" depart="717" departSpeed="10" departLane="best"/>
   <vehicle id="hS2N_106" type="ego_car" route="S2N" depart="730" departSpeed="10" departLane="best"/>
   <vehicle id="W2E_107" type="ego_car" route="W2E" depart="735" departSpeed="10" departLane="best"/>
   <vehicle id="hS2N_108" type="ego_car" route="S2N" depart="745" departSpeed="10" departLane="best"/>
   <vehicle id="hW2E_109" type="ego_car" route="W2E" depart="750" departSpeed="10" departLane="best"/>
   <vehicle id="hE2W_110" type="ego_car" route="E2W" depart="751" departSpeed="10" departLane="best"/>
   <vehicle id="hW2E_111" type="ego_car" route="W2E" depart="752" departSpeed="10" departLane="best"/>
   <vehicle id="hW2E_112" type="ego_car" route="W2E" depart="752" departSpeed="10" departLane="best"/>
   <vehicle id="hE2W_113" type="ego_car" route="E2W" depart="752" departSpeed="10" departLane="best"/>
   <vehicle id="E2W_114" type="ego_car" route="E2W" depart="754" departSpeed="10" departLane="best"/>
   <vehicle id="hN2S_115" type="ego_car" route="N2S" depart="756" departSpeed="10" departLane="best"/>
   <vehicle id="hS2N_116" type="ego_car" route="S2N" depart="762" departSpeed="10" departLane="best"/>
   <vehicle id="hN2S_117" type="ego_car" route="N2S" depart="764" departSpeed="10" departLane="best"/>
   <vehicle id="hS2N_118" type="ego_car" route="S2N" depart="766" departSpeed="10" departLane="best"/>
   <vehicle id="hS2N_119" type="ego_car" route="S2N" depart="778" departSpeed="10" departLane="best"/>
   <vehicle id="E2W_120" type="ego_car" route="E2W" depart="780" departSpeed="10" departLane="best"/>
   <vehicle id="hE2W_121" type="ego_car" route="E2W" depart="781" departSpeed="10" departLane="best"/>
   <vehicle id="hN2S_122" type="ego_car" route="N2S" depart="782" departSpeed="10" departLane="best"/>
   <vehicle id="hS2N_123" type="ego_car" route="S2N" depart="784" departSpeed="10" departLane="best"/>
   <vehicle id="hW2E_124" type="ego_car" route="W2E" depart="785" departSpeed="10" departLane="best"/>
   <vehicle id="N2S_125" type="ego_car" route="N2S" depart="786" departSpeed="10" departLane="best"/>
   <vehicle id="hN2S_126" type="ego_car" route="N2S" depart="791" departSpeed="10" departLane="best"/>
   <vehicle id="N2S_127" type="ego_car" route="N2S" depart="805" departSpeed="10" departLane="best"/>
   <vehicle id="hE2W_128" type="ego_car" route="E2W" depart="805" departSpeed="10" departLane="best"/>
   <vehicle id="hN2S_129" type="ego_car" route="N2S" depart="806" departSpeed="10" departLane="best"/>
   <vehicle id="hE2W_130" type="ego_car" route="E2W" depart="807" departSpeed="10" departLane="best"/>
   <vehicle id="hS2N_131" type="ego_car" route="S2N" depart="809" departSpeed="10" departLane="best"/>
   <vehicle id="E2W_132" type="ego_car" route="E2W" depart="810" departSpeed="10" departLane="best"/>
   <vehicle id="hE2W_133" type="ego_car" route="E2W" depart="810" departSpeed="10" departLane="best"/>
   <vehicle id="hN2S_134" type="ego_car" route="N2S" depart="811" departSpeed="10" departLane="best"/>
   <vehicle id="E2W_135" type="ego_car" route="E2W" depart="811" departSpeed="10" departLane="best"/>
   <vehicle id="hS2N_136" type="ego_car" route="S2N" depart="812" departSpeed="10" departLane="best"/>
   <vehicle id="S2N_137" type="ego_car" route="S2N" depart="813" departSpeed="10" departLane="best"/>
   <vehicle id="hE2W_138" type="ego_car" route="E2W" depart="816" departSpeed="10" departLane="best"/>
   <vehicle id="hS2N_139" type="ego_car" route="S2N" depart="821" departSpeed="10" departLane="best"/>
   <vehicle id="E2W_140" type="ego_car" route="E2W" depart="822" departSpeed="10" departLane="best"/>
   <vehicle id="hE2W_141" type="ego_car" route="E2W" depart="830" departSpeed="10" departLane="best"/>
   <vehicle id="hE2W_142" type="ego_car" route="E2W" depart="833" departSpeed="10" departLane="best"/>
   <vehicle id="hS2N_143" type="ego_car" route="S2N" depart="835" departSpeed="10" departLane="best"/>
   <vehicle id="hW2E_144" type="ego_car" route="W2E" depart="837" departSpeed="10" departLane="best"/>
   <vehicle id="hW2E_145" type="ego_car" route="W2E" depart="839" departSpeed="10" departLane="best"/>
   <vehicle id="W2E_146" type="ego_car" route="W2E" depart="849" departSpeed="10" departLane="best"/>
   <vehicle id="hN2S_147" type="ego_car" route="N2S" depart="849" departSpeed="10" departLane="best"/>
   <vehicle id="hE2W_148" type="ego_car" route="E2W" depart="849" departSpeed="10" departLane="best"/>
   <vehicle id="W2E_149" type="ego_car" route="W2E" depart="850" departSpeed="10" departLane="best"/>
   <vehicle id="hS2N_150" type="ego_car" route="S2N" depart="855" departSpeed="10" departLane="best"/>
   <vehicle id="hN2S_151" type="ego_car" route="N2S" depart="858" departSpeed="10" departLane="best"/>
   <vehicle id="hS2N_152" type="ego_car" route="S2N" depart="860" departSpeed="10" departLane="best"/>
   <vehicle id="hE2W_153" type="ego_car" route="E2W" depart="861" departSpeed="10" departLane="best"/>
   <vehicle id="hW2E_154" type="ego_car" route="W2E" depart="865" departSpeed="10" departLane="best"/>
   <vehicle id="N2S_155" type="ego_car" route="N2S" depart="865" departSpeed="10" departLane="best"/>
   <vehicle id="N2S_156" type="ego_car" route="N2S" depart="866" departSpeed="10" departLane="best"/>
   <vehicle id="hW2E_157" type="ego_car" route="W2E" depart="868" departSpeed="10" departLane="best"/>
   <vehicle id="hN2S_158" type="ego_car" route="N2S" depart="872" departSpeed="10" departLane="best"/>
   <vehicle id="S2N_159" type="ego_car" route="S2N" depart="873" departSpeed="10" departLane="best"/>
   <vehicle id="E2W_160" type="ego_car" route="E2W" depart="878" departSpeed="10" departLane="best"/>
   <vehicle id="E2W_161" type="ego_car" route="E2W" depart="880" departSpeed="10" departLane="best"/>
   <vehicle id="hN2S_162" type="ego_car" route="N2S" depart="882" departSpeed="10" departLane="best"/>
   <vehicle id="S2N_163" type="ego_car" route="S2N" depart="883" departSpeed="10" departLane="best"/>
   <vehicle id="hS2N_164" type="ego_car" route="S2N" depart="885" departSpeed="10" departLane="best"/>
   <vehicle id="hE2W_165" type="ego_car" route="E2W" depart="887" departSpeed="10" departLane="best"/>
   <vehicle id="S2N_166" type="ego_car" route="S2N" depart="892" departSpeed="10" departLane="best"/>
   <vehicle id="N2S_167" type="ego_car" route="N2S" depart="893" departSpeed="10" departLane="best"/>
   <vehicle id="hN2S_168" type="ego_car" route="N2S" depart="893" departSpeed="10" departLane="best"/>
   <vehicle id="E2W_169" type="ego_car" route="E2W" depart="896" departSpeed="10" departLane="best"/>
   <vehicle id="N2S_170" type="ego_car" route="N2S" depart="897" departSpeed="10" departLane="best"/>
   <vehicle id="hW2E_171" type="ego_car" route="W2E" depart="900" departSpeed="10" departLane="best"/>
   <vehicle id="hN2S_172" type="ego_car" route="N2S" depart="903" departSpeed="10" departLane="best"/>
   <vehicle id="hS2N_173" type="ego_car" route="S2N" depart="904" departSpeed="10" departLane="best"/>
   <vehicle id="hE2W_174" type="ego_car" route="E2W" depart="913" departSpeed="10" departLane="best"/>
   <vehicle id="hW2E_175" type="ego_car" route="W2E" depart="919" departSpeed="10" departLane="best"/>
   <vehicle id="W2E_176" type="ego_car" route="W2E" depart="932" departSpeed="10" departLane="best"/>
   <vehicle id="E2W_177" type="ego_car" route="E2W" depart="936" departSpeed="10" departLane="best"/>
   <vehicle id="hS2N_178" type="ego_car" route="S2N" depart="942" departSpeed="10" departLane="best"/>
   <vehicle id="hW2E_179" type="ego_car" route="W2E" depart="944" departSpeed="10" departLane="best"/>
   <vehicle id="hS2N_180" type="ego_car" route="S2N" depart="949" departSpeed="10" departLane="best"/>
   <vehicle id="hS2N_181" type="ego_car" route="S2N" depart="950" departSpeed="10" departLane="best"/>
   <vehicle id="hW2E_182" type="ego_car" route="W2E" depart="956" departSpeed="10" departLane="best"/>
   <vehicle id="hS2N_183" type="ego_car" route="S2N" depart="957" departSpeed="10" departLane="best"/>
   <vehicle id="N2S_184" type="ego_car" route="N2S" depart="959" departSpeed="10" departLane="best"/>
   <vehicle id="hS2N_185" type="ego_car" route="S2N" depart="959" departSpeed="10" departLane="best"/>
   <vehicle id="hW2E_186" type="ego_car" route="W2E" depart="961" departSpeed="10" departLane="best"/>
   <vehicle id="hS2N_187" type="ego_car" route="S2N" depart="961" departSpeed="10" departLane="best"/>
   <vehicle id="S2N_188" type="ego_car" route="S2N" depart="963" departSpeed="10" departLane="best"/>
   <vehicle id="W2E_189" type="ego_car" route="W2E" depart="967" departSpeed="10" departLane="best"/>
   <vehicle id="hN2S_190" type="ego_car" route="N2S" depart="977" departSpeed="10" departLane="best"/>
   <vehicle id="hN2S_191" type="ego_car" route="N2S" depart="978" departSpeed="10" departLane="best"/>
   <vehicle id="hN2S_192" type="ego_car" route="N2S" depart="984" departSpeed="10" departLane="best"/>
   <vehicle id="S2N_193" type="ego_car" route="S2N" depart="984" departSpeed="10" departLane="best"/>
   <vehicle id="hW2E_194" type="ego_car" route="W2E" depart="986" departSpeed="10" departLane="best"/>
   <vehicle id="hN2S_195" type="ego_car" route="N2S" depart="986" departSpeed="10" departLane="best"/>
   <vehicle id="hS2N_196" type="ego_car" route="S2N" depart="988" departSpeed="10" departLane="best"/>
   <vehicle id="hS2N_197" type="ego_car" route="S2N" depart="989" departSpeed="10" departLane="best"/>
   <vehicle id="N2S_198" type="ego_car" route="N2S" depart="991" departSpeed="10" departLane="best"/>
   <vehicle id="hE2W_199" type="ego_car" route="E2W" depart="991" departSpeed="10" departLane="best"/>
   <vehicle id="hE2W_200" type="ego_car" route="E2W" depart="994" departSpeed="10" departLane="best"/>
   <vehicle id="hW2E_201" type="ego_car" route="W2E" depart="996" departSpeed="10" departLane="best"/>
   <vehicle id="hN2S_202" type="ego_car" route="N2S" depart="998" departSpeed="10" departLane="best"/>
   <vehicle id="hN2S_203" type="ego_car" route="N2S" depart="1004" departSpeed="10" departLane="best"/>
   <vehicle id="S2N_204" type="ego_car" route="S2N" depart="1005" departSpeed="10" departLane="best"/>
   <vehicle id="hN2S_205" type="ego_car" route="N2S" depart="1006" departSpeed="10" departLane="best"/>
   <vehicle id="S2N_206" type="ego_car" route="S2N" depart="1006" departSpeed="10" departLane="best"/>
   <vehicle id="hN2S_207" type="ego_car" route="N2S" depart="1007" departSpeed="10" departLane="best"/>
   <vehicle id="N2S_208" type="ego_car" route="N2S" depart="1015" departSpeed="10" departLane="best"/>
   <vehicle id="hN2S_209" type="ego_car" route="N2S" depart="1017" departSpeed="10" departLane="best"/>
   <vehicle id="hN2S_210" type="ego_car" route="N2S" depart="1020" departSpeed="10" departLane="best"/>
   <vehicle id="hE2W_211" type="ego_car" route="E2W" depart="1024" departSpeed="10" departLane="best"/>
   <vehicle id="hE2W_212" type="ego_car" route="E2W" depart="1024" departSpeed="10" departLane="best"/>
   <vehicle id="hS2N_213" type="ego_car" route="S2N" depart="1026" departSpeed="10" departLane="best"/>
   <vehicle id="hN2S_214" type="ego_car" route="N2S" depart="1038" departSpeed="10" departLane="best"/>
   <vehicle id="hW2E_215" type="ego_car" route="W2E" depart="1046" departSpeed="10" departLane="best"/>
   <vehicle id="hE2W_216" type="ego_car" route="E2W" depart="1046" departSpeed="10" departLane="best"/>
   <vehicle id="hN2S_217" type="ego_car" route="N2S" depart="1055" departSpeed="10" departLane="best"/>
   <vehicle id="hN2S_218" type="ego_car" route="N2S" depart="1055" departSpeed="10" departLane="best"/>
   <vehicle id="W2E_219" type="ego_car" route="W2E" depart="1064" departSpeed="10" departLane="best"/>
   <vehicle id="hS2N_220" type="ego_car" route="S2N" depart="1064" departSpeed="10" departLane="best"/>
   <vehicle id="hW2E_221" type="ego_car" route="W2E" depart="1067" departSpeed="10" departLane="best"/>
   <vehicle id="hN2S_222" type="ego_car" route="N2S" depart="1067" departSpeed="10" departLane="best"/>
   <vehicle id="hE2W_223" type="ego_car" route="E2W" depart="1069" departSpeed="10" departLane="best"/>
   <vehicle id="hS2N_224" type="ego_car" route="S2N" depart="1069" departSpeed="10" departLane="best"/>
   <vehicle id="W2E_225" type="ego_car" route="W2E" depart="1070" departSpeed="10" departLane="best"/>
   <vehicle id="hW2E_226" type="ego_car" route="W2E" depart="1074" departSpeed="10" departLane="best"/>
   <vehicle id="hS2N_227" type="ego_car" route="S2N" depart="1075" departSpeed="10" departLane="best"/>
   <vehicle id="hS2N_228" type="ego_car" route="S2N" depart="1076" departSpeed="10" departLane="best"/>
   <vehicle id="E2W_229" type="ego_car" route="E2W" depart="1080" departSpeed="10" departLane="best"/>
   <vehicle id="hW2E_230" type="ego_car" route="W2E" depart="1082" departSpeed="10" departLane="best"/>
   <vehicle id="N2S_231" type="ego_car" route="N2S" depart="1084" departSpeed="10" departLane="best"/>
   <vehicle id="E2W_232" type="ego_car" route="E2W" depart="1097" departSpeed="10" departLane="best"/>
   <vehicle id="hW2E_233" type="ego_car" route="W2E" depart="1100" departSpeed="10" departLane="best"/>
   <vehicle id="hN2S_234" type="ego_car" route="N2S" depart="1102" departSpeed="10" departLane="best"/>
   <vehicle id="E2W_235" type="ego_car" route="E2W" depart="1103" departSpeed="10" departLane="best"/>
   <vehicle id="N2S_236" type="ego_car" route="N2S" depart="1107" departSpeed="10" departLane="best"/>
   <vehicle id="hE2W_237" type="ego_car" route="E2W" depart="1108" departSpeed="10" departLane="best"/>
   <vehicle id="N2S_238" type="ego_car" route="N2S" depart="1114" departSpeed="10" departLane="best"/>
   <vehicle id="hN2S_239" type="ego_car" route="N2S" depart="1117" departSpeed="10" departLane="best"/>
   <vehicle id="hN2S_240" type="ego_car" route="N2S" depart="1119" departSpeed="10" departLane="best"/>
   <vehicle id="hE2W_241" type="ego_car" route="E2W" depart="1134" departSpeed="10" departLane="best"/>
   <vehicle id="hW2E_242" type="ego_car" route="W2E" depart="1146" departSpeed="10" departLane="best"/>
   <vehicle id="hW2E_243" type="ego_car" route="W2E" depart="1147" departSpeed="10" departLane="best"/>
   <vehicle id="hS2N_244" type="ego_car" route="S2N" depart="1154" departSpeed="10" departLane="best"/>
   <vehicle id="W2E_245" type="ego_car" route="W2E" depart="1156" departSpeed="10" departLane="best"/>
   <vehicle id="hN2S_246" type="ego_car" route="N2S" depart="1160" departSpeed="10" departLane="best"/>
   <vehicle id="W2E_247" type="ego_car" route="W2E" depart="1162" departSpeed="10" departLane="best"/>
   <vehicle id="hE2W_248" type="ego_car" route="E2W" depart="1163" departSpeed="10" departLane="best"/>
   <vehicle id="hS2N_249" type="ego_car" route="S2N" depart="1165" departSpeed="10" departLane="best"/>
   <vehicle id="hN2S_250" type="ego_car" route="N2S" depart="1168" departSpeed="10" departLane="best"/>
   <vehicle id="hE2W_251" type="ego_car" route="E2W" depart="1177" departSpeed="10" departLane="best"/>
   <vehicle id="hW2E_252" type="ego_car" route="W2E" depart="1192" departSpeed="10" departLane="best"/>
   <vehicle id="N2S_253" type="ego_car" route="N2S" depart="1192" departSpeed="10" departLane="best"/>
   <vehicle id="hS2N_254" type="ego_car" route="S2N" depart="1200" departSpeed="10" departLane="best"/>
   <vehicle id="hN2S_255" type="ego_car" route="N2S" depart="1202" departSpeed="10" departLane="best"/>
   <vehicle id="hE2W_256" type="ego_car" route="E2W" depart="1208" departSpeed="10" departLane="best"/>
   <vehicle id="E2W_257" type="ego_car" route="E2W" depart="1217" departSpeed="10" departLane="best"/>
   <vehicle id="S2N_258" type="ego_car" route="S2N" depart="1220" departSpeed="10" departLane="best"/>
   <vehicle id="hW2E_259" type="ego_car" route="W2E" depart="1224" departSpeed="10" departLane="best"/>
   <vehicle id="hS2N_260" type="ego_car" route="S2N" depart="1232" departSpeed="10" departLane="best"/>
   <vehicle id="hS2N_261" type="ego_car" route="S2N" depart="1235" departSpeed="10" departLane="best"/>
   <vehicle id="hN2S_262" type="ego_car" route="N2S" depart="1236" departSpeed="10" departLane="best"/>
   <vehicle id="hN2S_263" type="ego_car" route="N2S" depart="1237" departSpeed="10" departLane="best"/>
   <vehicle id="N2S_264" type="ego_car" route="N2S" depart="1248" departSpeed="10" departLane="best"/>
   <vehicle id="hE2W_265" type="ego_car" route="E2W" depart="1251" departSpeed="10" departLane="best"/>
   <vehicle id="hW2E_266" type="ego_car" route="W2E" depart="1258" departSpeed="10" departLane="best"/>
   <vehicle id="hE2W_267" type="ego_car" route="E2W" depart="1258" departSpeed="10" departLane="best"/>
   <vehicle id="hN2S_268" type="ego_car" route="N2S" depart="1267" departSpeed="10" departLane="best"/>
   <vehicle id="hW2E_269" type="ego_car" route="W2E" depart="1270" departSpeed="10" departLane="best"/>
   <vehicle id="N2S_270" type="ego_car" route="N2S" depart="1270" departSpeed="10" departLane="best"/>
   <vehicle id="hW2E_271" type="ego_car" route="W2E" depart="1272" departSpeed="10" departLane="best"/>
   <vehicle id="hE2W_272" type="ego_car" route="E2W" depart="1272" departSpeed="10" departLane="best"/>
   <vehicle id="hN2S_273" type="ego_car" route="N2S" depart="1278" departSpeed="10" departLane="best"/>
   <vehicle id="hE2W_274" type="ego_car" route="E2W" depart="1279" departSpeed="10" departLane="best"/>
   <vehicle id="E2W_275" type="ego_car" route="E2W" depart="1279" departSpeed="10" departLane="best"/>
   <vehicle id="N2S_276" type="ego_car" route="N2S" depart="1300" departSpeed="10" departLane="best"/>
   <vehicle id="S2N_277" type="ego_car" route="S2N" depart="1324" departSpeed="10" departLane="best"/>
   <vehicle id="hE2W_278" type="ego_car" route="E2W" depart="1337" departSpeed="10" departLane="best"/>
   <vehicle id="hE2W_279" type="ego_car" route="E2W" depart="1344" departSpeed="10" departLane="best"/>
   <vehicle id="hN2S_280" type="ego_car" route="N2S" depart="1351" departSpeed="10" departLane="best"/>
   <vehicle id="hW2E_281" type="ego_car" route="W2E" depart="1357" departSpeed="10" departLane="best"/>
   <vehicle id="E2W_282" type="ego_car" route="E2W" depart="1358" departSpeed="10" departLane="best"/>
   <vehicle id="hN2S_283" type="ego_car" route="N2S" depart="1360" departSpeed="10" departLane="best"/>
   <vehicle id="hW2E_284" type="ego_car" route="W2E" depart="1361" departSpeed="10" departLane="best"/>
   <vehicle id="hS2N_285" type="ego_car" route="S2N" depart="1361" departSpeed="10" departLane="best"/>
   <vehicle id="hE2W_286" type="ego_car" route="E2W" depart="1377" departSpeed="10" departLane="best"/>
   <vehicle id="hE2W_287" type="ego_car" route="E2W" depart="1388" departSpeed="10" departLane="best"/>
   <vehicle id="S2N_288" type="ego_car" route="S2N" depart="1396" departSpeed="10" departLane="best"/>