<routes>

        <vType id = 'ego_car' vclass="evehicle" emissionClass="Energy" tau="1.5" accel="3.0" decel="3.0" color="#00FFFF" sigma="0.2" length="4.90" minGap="1.0" maxSpeed="20" carFollowing="IDM" guiShape="passenger"/>

        <route id="N2S" edges="NS -SN"/>
        <route id="S2N" edges="SN -NS"/>
        <route id="W2E" edges="WE -EW"/>
        <route id="E2W" edges="EW -WE"/>
   <vehicle id="hS2N_1" type="ego_car" route="S2N" depart="60" departSpeed="10" departLane="best"/>
   <vehicle id="N2S_2" type="ego_car" route="N2S" depart="62" departSpeed="10" departLane="best"/>
   <vehicle id="hN2S_3" type="ego_car" route="N2S" depart="64" departSpeed="10" departLane="best"/>
   <vehicle id="N2S_4" type="ego_car" route="N2S" depart="67" departSpeed="10" departLane="best"/>
   <vehicle id="hE2W_5" type="ego_car" route="E2W" depart="111" departSpeed="10" departLane="best"/>
   <vehicle id="hS2N_6" type="ego_car" route="S2N" depart="136" departSpeed="10" departLane="best"/>
   <vehicle id="hN2S_7" type="ego_car" route="N2S" depart="147" departSpeed="10" departLane="best"/>
   <vehicle id="E2W_8" type="ego_car" route="E2W" depart="157" departSpeed="10" departLane="best"/>
   <vehicle id="hE2W_9" type="ego_car" route="E2W" depart="167" departSpeed="10" departLane="best"/>
   <vehicle id="S2N_10" type="ego_car" route="S2N" depart="174" departSpeed="10" departLane="best"/>
   <vehicle id="S2N_11" type="ego_car" route="S2N" depart="181" departSpeed="10" departLane="best"/>
   <vehicle id="hN2S_12" type="ego_car" route="N2S" depart="202" departSpeed="10" departLane="best"/>
   <vehicle id="N2S_13" type="ego_car" route="N2S" depart="208" departSpeed="10" departLane="best"/>
   <vehicle id="S2N_14" type="ego_car" route="S2N" depart="209" departSpeed="10" departLane="best"/>
   <vehicle id="hN2S_15" type="ego_car" route="N2S" depart="224" departSpeed="10" departLane="best"/>
   <vehicle id="hN2S_16" type="ego_car" route="N2S" depart="241" departSpeed="10" departLane="best"/>
   <vehicle id="S2N_17" type="ego_car" route="S2N" depart="253" departSpeed="10" departLane="best"/>
   <vehicle id="hN2S_18" type="ego_car" route="N2S" depart="260" departSpeed="10" departLane="best"/>
   <vehicle id="hS2N_19" type="ego_car" route="S2N" depart="277" departSpeed="10" departLane="best"/>
   <vehicle id="E2W_20" type="ego_car" route="E2W" depart="290" departSpeed="10" departLane="best"/>
   <vehicle id="hN2S_21" type="ego_car" route="N2S" depart="293" departSpeed="10" departLane="best"/>
   <vehicle id="hW2E_22" type="ego_car" route="W2E" depart="294" departSpeed="10" departLane="best"/>
   <vehicle id="hW2E_23" type="ego_car" route="W2E" depart="301" departSpeed="10" departLane="best"/>
   <vehicle id="E2W_24" type="ego_car" route="E2W" depart="302" departSpeed="10" departLane="best"/>
   <vehicle id="hN2S_25" type="ego_car" route="N2S" depart="306" departSpeed="10" departLane="best"/>
   <vehicle id="hE2W_26" type="ego_car" route="E2W" depart="308" departSpeed="10" departLane="best"/>
   <vehicle id="S2N_27" type="ego_car" route="S2N" depart="315" departSpeed="10" departLane="best"/>
   <vehicle id="N2S_28" type="ego_car" route="N2S" depart="317" departSpeed="10" departLane="best"/>
   <vehicle id="hE2W_29" type="ego_car" route="E2W" depart="325" departSpeed="10" departLane="best"/>
   <vehicle id="hW2E_30" type="ego_car" route="W2E" depart="326" departSpeed="10" departLane="best"/>
   <vehicle id="hS2N_31" type="ego_car" route="S2N" depart="340" departSpeed="10" departLane="best"/>
   <vehicle id="hN2S_32" type="ego_car" route="N2S" depart="340" departSpeed="10" departLane="best"/>
   <vehicle id="hS2N_33" type="ego_car" route="S2N" depart="341" departSpeed="10" departLane="best"/>
   <vehicle id="hW2E_34" type="ego_car" route="W2E" depart="351" departSpeed="10" departLane="best"/>
   <vehicle id="hE2W_35" type="ego_car" route="E2W" depart="354" departSpeed="10" departLane="best"/>
   <vehicle id="hS2N_36" type="ego_car" route="S2N" depart="354" departSpeed="10" departLane="best"/>
   <vehicle id="hN2S_37" type="ego_car" route="N2S" depart="355" departSpeed="10" departLane="best"/>
   <vehicle id="hS2N_38" type="ego_car" route="S2N" depart="363" departSpeed="10" departLane="best"/>
   <vehicle id="hW2E_39" type="ego_car" route="W2E" depart="364" departSpeed="10" departLane="best"/>
   <vehicle id="hW2E_40" type="ego_car" route="W2E" depart="365" departSpeed="10" departLane="best"/>
   <vehicle id="hW2E_41" type="ego_car" route="W2E" depart="365" departSpeed="10" departLane="best"/>
   <vehicle id="W2E_42" type="ego_car" route="W2E" depart="367" departSpeed="10" departLane="best"/>
   <vehicle id="S2N_43" type="ego_car" route="S2N" depart="382" departSpeed="10" departLane="best"/>
   <vehicle id="hS2N_44" type="ego_car" route="S2N" depart="384" departSpeed="10" departLane="best"/>
   <vehicle id="S2N_45" type="ego_car" route="S2N" depart="386" departSpeed="10" departLane="best"/>
   <vehicle id="S2N_46" type="ego_car" route="S2N" depart="393" departSpeed="10" departLane="best"/>
   <vehicle id="W2E_47" type="ego_car" route="W2E" depart="395" departSpeed="10" departLane="best"/>
   <vehicle id="hE2W_48" type="ego_car" route="E2W" depart="410" departSpeed="10" departLane="best"/>
   <vehicle id="hS2N_49" type="ego_car" route="S2N" depart="412" departSpeed="10" departLane="best"/>
   <vehicle id="hS2N_50" type="ego_car" route="S2N" depart="424" departSpeed="10" departLane="best"/>
   <vehicle id="hS2N_51" type="ego_car" route="S2N" depart="426" departSpeed="10" departLane="best"/>
   <vehicle id="E2W_52" type="ego_car" route="E2W" depart="427" departSpeed="10" departLane="best"/>
   <vehicle id="hS2N_53" type="ego_car" route="S2N" depart="430" departSpeed="10" departLane="best"/>
   <vehicle id="hW2E_54" type="ego_car" route="W2E" depart="437" departSpeed="10" departLane="best"/>
   <vehicle id="hE2W_55" type="ego_car" route="E2W" depart="444" departSpeed="10" departLane="best"/>
   <vehicle id="hW2E_56" type="ego_car" route="W2E" depart="447" departSpeed="10" departLane="best"/>
   <vehicle id="W2E_57" type="ego_car" route="W2E" depart="449" departSpeed="10" departLane="best"/>
   <vehicle id="hS2N_58" type="ego_car" route="S2N" depart="454" departSpeed="10" departLane="best"/>
   <vehicle id="W2E_59" type="ego_car" route="W2E" depart="460" departSpeed="10" departLane="best"/>
   <vehicle id="hE2W_60" type="ego_car" route="E2W" depart="467" departSpeed="10" departLane="best"/>
   <vehicle id="hW2E_61" type="ego_car" route="W2E" depart="468" departSpeed="10" departLane="best"/>
   <vehicle id="hN2S_62" type="ego_car" route="N2S" depart="471" departSpeed="10" departLane="best"/>
   <vehicle id="hS2N_63" type="ego_car" route="S2N" depart="471" departSpeed="10" departLane="best"/>
   <vehicle id="hS2N_64" type="ego_car" route="S2N" depart="471" departSpeed="10" departLane="best"/>
   <vehicle id="hS2N_65" type="ego_car" route="S2N" depart="473" departSpeed="10" departLane="best"/>
   <vehicle id="hE2W_66" type="ego_car" route="E2W" depart="476" departSpeed="10" departLane="best"/>
   <vehicle id="N2S_67" type="ego_car" route="N2S" depart="489" departSpeed="10" departLane="best"/>
   <vehicle id="N2S_68" type="ego_car" route="N2S" depart="501" departSpeed="10" departLane="best"/>
   <vehicle id="hN2S_69" type="ego_car" route="N2S" depart="504" departSpeed="10" departLane="best"/>
   <vehicle id="hS2N_70" type="ego_car" route="S2N" depart="517" departSpeed="10" departLane="best"/>
   <vehicle id="E2W_71" type="ego_car" route="E2W" depart="518" departSpeed="10" departLane="best"/>
   <vehicle id="hW2E_72" type="ego_car" route="W2E" depart="529" departSpeed="10" departLane="best"/>
   <vehicle id="hN2S_73" type="ego_car" route="N2S" depart="531" departSpeed="10" departLane="best"/>
   <vehicle id="hS2N_74" type="ego_car" route="S2N" depart="531" departSpeed="10" departLane="best"/>
   <vehicle id="hN2S_75" type="ego_car" route="N2S" depart="533" departSpeed="10" departLane="best"/>
   <vehicle id="hW2E_76" type="ego_car" route="W2E" depart="536" departSpeed="10" departLane="best"/>
   <vehicle id="hS2N_77" type="ego_car" route="S2N" depart="550" departSpeed="10" departLane="best"/>
   <vehicle id="hN2S_78" type="ego_car" route="N2S" depart="554" departSpeed="10" departLane="best"/>
   <vehicle id="hN2S_79" type="ego_car" route="N2S" depart="558" departSpeed="10" departLane="best"/>
   <vehicle id="E2W_80" type="ego_car" route="E2W" depart="560" departSpeed="10" departLane="best"/>
   <vehicle id="hW2E_81" type="ego_car" route="W2E" depart="562" departSpeed="10" departLane="best"/>
   <vehicle id="hN2S_82" type="ego_car" route="N2S" depart="562" departSpeed="10" departLane="best"/>
   <vehicle id="hE2W_83" type="ego_car" route="E2W" depart="569" departSpeed="10" departLane="best"/>
   <vehicle id="hN2S_84" type="ego_car" route="N2S" depart="569" departSpeed="10" departLane="best"/>
   <vehicle id="hE2W_85" type="ego_car" route="E2W" depart="579" departSpeed="10" departLane="best"/>
   <vehicle id="W2E_86" type="ego_car" route="W2E" depart="588" departSpeed="10" departLane="best"/>
   <vehicle id="hS2N_87" type="ego_car" route="S2N" depart="588" departSpeed="10" departLane="best"/>
   <vehicle id="hS2N_88" type="ego_car" route="S2N" depart="592" departSpeed="10" departLane="best"/>
   <vehicle id="E2W_89" type="ego_car" route="E2W" depart="606" departSpeed="10" departLane="best"/>
   <vehicle id="S2N_90" type="ego_car" route="S2N" depart="614" departSpeed="10" departLane="best"/>
   <vehicle id="N2S_91" type="ego_car" route="N2S" depart="629" departSpeed="10" departLane="best"/>
   <vehicle id="hS2N_92" type="ego_car" route="S2N" depart="629" departSpeed="10" departLane="best"/>
   <vehicle id="hE2W_93" type="ego_car" route="E2W" depart="631" departSpeed="10" departLane="best"/>
   <vehicle id="hW2E_94" type="ego_car" route="W2E" depart="636" departSpeed="10" departLane="best"/>
   <vehicle id="S2N_95" type="ego_car" route="S2N" depart="641" departSpeed="10" departLane="best"/>
   <vehicle id="hW2E_96" type="ego_car" route="W2E" depart="644" departSpeed="10" departLane="best"/>
   <vehicle id="hN2S_97" type="ego_car" route="N2S" depart="645" departSpeed="10" departLane="best"/>
   <vehicle id="hE2W_98" type="ego_car" route="E2W" depart="650" departSpeed="10" departLane="best"/>
   <vehicle id="hS2N_99" type="ego_car" route="S2N" depart="661" departSpeed="10" departLane="best"/>
   <vehicle id="hN2S_100" type="ego_car" route="N2S" depart="663" departSpeed="10" departLane="best"/>
   <vehicle id="N2S_101" type="ego_car" route="N2S" depart="665" departSpeed="10" departLane="best"/>
   <vehicle id="hW2E_102" type="ego_car" route="W2E" depart="666" departSpeed="10" departLane="best"/>
   <vehicle id="hS2N_103" type="ego_car" route="S2N" depart="667" departSpeed="10" departLane="best"/>
   <vehicle id="hE2W_104" type="ego_car" route="E2W" depart="676" departSpeed="10" departLane="best"/>
   <vehicle id="hN2S_105" type="ego_car" route="N2S" depart="677" departSpeed="10" departLane="best"/>
   <vehicle id="hE2W_106" type="ego_car" route="E2W" depart="680" departSpeed="10" departLane="best"/>
   <vehicle id="S2N_107" type="ego_car" route="S2N" depart="683" departSpeed="10" departLane="best"/>
   <vehicle id="hW2E_108" type="ego_car" route="W2E" depart="684" departSpeed="10" departLane="best"/>
   <vehicle id="hN2S_109" type="ego_car" route="N2S" depart="685" departSpeed="10" departLane="best"/>
   <vehicle id="hS2N_110" type="ego_car" route="S2N" depart="686" departSpeed="10" departLane="best"/>
   <vehicle id="hN2S_111" type="ego_car" route="N2S" depart="689" departSpeed="10" departLane="best"/>
   <vehicle id="hN2S_112" type="ego_car" route="N2S" depart="690" departSpeed="10" departLane="best"/>
   <vehicle id="hE2W_113" type="ego_car" route="E2W" depart="694" departSpeed="10" departLane="best"/>
   <vehicle id="W2E_114" type="ego_car" route="W2E" depart="701" departSpeed="10" departLane="best"/>
   <vehicle id="hW2E_115" type="ego_car" route="W2E" depart="703" departSpeed="10" departLane="best"/>
   <vehicle id="hE2W_116" type="ego_car" route="E2W" depart="717" departSpeed="10" departLane="best"/>
   <vehicle id="hN2S_117" type="ego_car" route="N2S" depart="721" departSpeed="10" departLane="best"/>
   <vehicle id="hS2N_118" type="ego_car" route="S2N" depart="721" departSpeed="10" departLane="best"/>
   <vehicle id="hW2E_119" type="ego_car" route="W2E" depart="726" departSpeed="10" departLane="best"/>
   <vehicle id="S2N_120" type="ego_car" route="S2N" depart="730" departSpeed="10" departLane="best"/>
   <vehicle id="hW2E_121" type="ego_car" route="W2E" depart="733" departSpeed="10" departLane="best"/>
   <vehicle id="hS2N_122" type="ego_car" route="S2N" depart="735" departSpeed="10" departLane="best"/>
   <vehicle id="hE2W_123" type="ego_car" route="E2W" depart="736" departSpeed="10" departLane="best"/>
   <vehicle id="hN2S_124" type="ego_car" route="N2S" depart="736" departSpeed="10" departLane="best"/>
   <vehicle id="S2N_125" type="ego_car" route="S2N" depart="736" departSpeed="10" departLane="best"/>
   <vehicle id="hS2N_126" type="ego_car" route="S2N" depart="738" departSpeed="10" departLane="best"/>
   <vehicle id="E2W_127" type="ego_car" route="E2W" depart="741" departSpeed="10" departLane="best"/>
   <vehicle id="hW2E_128" type="ego_car" route="W2E" depart="744" departSpeed="10" departLane="best"/>
   <vehicle id="hN2S_129" type="ego_car" route="N2S" depart="744" departSpeed="10" departLane="best"/>
   <vehicle id="hW2E_130" type="ego_car" route="W2E" depart="755" departSpeed="10" departLane="best"/>
   <vehicle id="hE2W_131" type="ego_car" route="E2W" depart="758" departSpeed="10" departLane="best"/>
   <vehicle id="N2S_132" type="ego_car" route="N2S" depart="767" departSpeed="10" departLane="best"/>
   <vehicle id="hN2S_133" type="ego_car" route="N2S" depart="774" departSpeed="10" departLane="best"/>
   <vehicle id="hE2W_134" type="ego_car" route="E2W" depart="779" departSpeed="10" departLane="best"/>
   <vehicle id="E2W_135" type="ego_car" route="E2W" depart="789" departSpeed="10" departLane="best"/>
   <vehicle id="hS2N_136" type="ego_car" route="S2N" depart="790" departSpeed="10" departLane="best"/>
   <vehicle id="E2W_137" type="ego_car" route="E2W" depart="792" departSpeed="10" departLane="best"/>
   <vehicle id="hW2E_138" type="ego_car" route="W2E" depart="796" departSpeed="10" departLane="best"/>
   <vehicle id="hE2W_139" type="ego_car" route="E2W" depart="801" departSpeed="10" departLane="best"/>
   <vehicle id="S2N_140" type="ego_car" route="S2N" depart="801" departSpeed="10" departLane="best"/>
   <vehicle id="hW2E_141" type="ego_car" route="W2E" depart="803" departSpeed="10" departLane="best"/>
   <vehicle id="hE2W_142" type="ego_car" route="E2W" depart="804" departSpeed="10" departLane="best"/>
   <vehicle id="hS2N_143" type="ego_car" route="S2N" depart="805" departSpeed="10" departLane="best"/>
   <vehicle id="hS2N_144" type="ego_car" route="S2N" depart="806" departSpeed="10" departLane="best"/>
   <vehicle id="hS2N_145" type="ego_car" route="S2N" depart="808" departSpeed="10" departLane="best"/>
   <vehicle id="N2S_146" type="ego_car" route="N2S" depart="811" departSpeed="10" departLane="best"/>
   <vehicle id="hS2N_147" type="ego_car" route="S2N" depart="812" departSpeed="10" departLane="best"/>
   <vehicle id="hW2E_148" type="ego_car" route="W2E" depart="813" departSpeed="10" departLane="best"/>
   <vehicle id="S2N_149" type="ego_car" route="S2N" depart="813" departSpeed="10" departLane="best"/>
   <vehicle id="hS2N_150" type="ego_car" route="S2N" depart="815" departSpeed="10" departLane="best"/>
   <vehicle id="hN2S_151" type="ego_car" route="N2S" depart="818" departSpeed="10" departLane="best"/>
   <vehicle id="hW2E_152" type="ego_car" route="W2E" depart="819" departSpeed="10" departLane="best"/>
   <vehicle id="hW2E_153" type="ego_car" route="W2E" depart="820" departSpeed="10" departLane="best"/>
   <vehicle id="hW2E_154" type="ego_car" route="W2E" depart="822" departSpeed="10" departLane="best"/>
   <vehicle id="W2E_155" type="ego_car" route="W2E" depart="822" departSpeed="10" departLane="best"/>
   <vehicle id="N2S_156" type="ego_car" route="N2S" depart="828" departSpeed="10" departLane="best"/>
   <vehicle id="hS2N_157" type="ego_car" route="S2N" depart="831" departSpeed="10" departLane="best"/>
   <vehicle id="hE2W_158" type="ego_car" route="E2W" depart="842" departSpeed="10" departLane="best"/>
   <vehicle id="S2N_159" type="ego_car" route="S2N" depart="843" departSpeed="10" departLane="best"/>
   <vehicle id="W2E_160" type="ego_car" route="W2E" depart="846" departSpeed="10" departLane="best"/>
   <vehicle id="N2S_161" type="ego_car" route="N2S" depart="846" departSpeed="10" departLane="best"/>
   <vehicle id="hS2N_162" type="ego_car" route="S2N" depart="848" departSpeed="10" departLane="best"/>
   <vehicle id="N2S_163" type="ego_car" route="N2S" depart="849" departSpeed="10" departLane="best"/>
   <vehicle id="hS2N_164" type="ego_car" route="S2N" depart="849" departSpeed="10" departLane="best"/>
   <vehicle id="hN2S_165" type="ego_car" route="N2S" depart="850" departSpeed="10" departLane="best"/>
   <vehicle id="W2E_166" type="ego_car" route="W2E" depart="853" departSpeed="10" departLane="best"/>
   <vehicle id="W2E_167" type="ego_car" route="W2E" depart="864" departSpeed="10" departLane="best"/>
   <vehicle id="hE2W_168" type="ego_car" route="E2W" depart="874" departSpeed="10" departLane="best"/>
   <vehicle id="N2S_169" type="ego_car" route="N2S" depart="874" departSpeed="10" departLane="best"/>
   <vehicle id="N2S_170" type="ego_car" route="N2S" depart="874" departSpeed="10" departLane="best"/>
   <vehicle id="hE2W_171" type="ego_car" route="E2W" depart="875" departSpeed="10" departLane="best"/>
   <vehicle id="hW2E_172" type="ego_car" route="W2E" depart="877" departSpeed="10" departLane="best"/>
   <vehicle id="hW2E_173" type="ego_car" route="W2E" depart="878" departSpeed="10" departLane="best"/>
   <vehicle id="hE2W_174" type="ego_car" route="E2W" depart="879" departSpeed="10" departLane="best"/>
   <vehicle id="hE2W_175" type="ego_car" route="E2W" depart="882" departSpeed="10" departLane="best"/>
   <vehicle id="E2W_176" type="ego_car" route="E2W" depart="890" departSpeed="10" departLane="best"/>
   <vehicle id="N2S_177" type="ego_car" route="N2S" depart="895" departSpeed="10" departLane="best"/>
   <vehicle id="hE2W_178" type="ego_car" route="E2W" depart="899" departSpeed="10" departLane="best"/>
   <vehicle id="hW2E_179" type="ego_car" route="W2E" depart="899" departSpeed="10" departLane="best"/>
   <vehicle id="hW2E_180" type="ego_car" route="W2E" depart="900" departSpeed="10" departLane="best"/>
   <vehicle id="hW2E_181" type="ego_car" route="W2E" depart="909" departSpeed="10" departLane="best"/>
   <vehicle id="hN2S_182" type="ego_car" route="N2S" depart="913" departSpeed="10" departLane="best"/>
   <vehicle id="hE2W_183" type="ego_car" route="E2W" depart="914" departSpeed="10" departLane="best"/>
   <vehicle id="N2S_184" type="ego_car" route="N2S" depart="918" departSpeed="10" departLane="best"/>
   <vehicle id="hE2W_185" type="ego_car" route="E2W" depart="921" departSpeed="10" departLane="best"/>
   <vehicle id="hN2S_186" type="ego_car" route="N2S" depart="924" departSpeed="10" departLane="best"/>
   <vehicle id="hN2S_187" type="ego_car" route="N2S" depart="932" departSpeed="10" departLane="best"/>
   <vehicle id="W2E_188" type="ego_car" route="W2E" depart="934" departSpeed="10" departLane="best"/>
   <vehicle id="E2W_189" type="ego_car" route="E2W" depart="939" departSpeed="10" departLane="best"/>
   <vehicle id="hN2S_190" type="ego_car" route="N2S" depart="940" departSpeed="10" departLane="best"/>
   <vehicle id="hW2E_191" type="ego_car" route="W2E" depart="943" departSpeed="10" departLane="best"/>
   <vehicle id="hW2E_192" type="ego_car" route="W2E" depart="943" departSpeed="10" departLane="best"/>
   <vehicle id="S2N_193" type="ego_car" route="S2N" depart="945" departSpeed="10" departLane="best"/>
   <vehicle id="hE2W_194" type="ego_car" route="E2W" depart="951" departSpeed="10" departLane="best"/>
   <vehicle id="hE2W_195" type="ego_car" route="E2W" depart="960" departSpeed="10" departLane="best"/>
   <vehicle id="hN2S_196" type="ego_car" route="N2S" depart="960" departSpeed="10" departLane="best"/>
   <vehicle id="hE2W_197" type="ego_car" route="E2W" depart="970" departSpeed="10" departLane="best"/>
   <vehicle id="E2W_198" type="ego_car" route="E2W" depart="972" departSpeed="10" departLane="best"/>
   <vehicle id="hN2S_199" type="ego_car" route="N2S" depart="974" departSpeed="10" departLane="best"/>
   <vehicle id="hW2E_200" type="ego_car" route="W2E" depart="986" departSpeed="10" departLane="best"/>
   <vehicle id="hW2E_201" type="ego_car" route="W2E" depart="990" departSpeed="10" departLane="best"/>
   <vehicle id="hN2S_202" type="ego_car" route="N2S" depart="992" departSpeed="10" departLane="best"/>
   <vehicle id="hE2W_203" type="ego_car" route="E2W" depart="997" departSpeed="10" departLane="best"/>
   <vehicle id="S2N_204" type="ego_car" route="S2N" depart="997" departSpeed="10" departLane="best"/>
   <vehicle id="hW2E_205" type="ego_car" route="W2E" depart="998" departSpeed="10" departLane="best"/>
   <vehicle id="N2S_206" type="ego_car" route="N2S" depart="1004" departSpeed="10" departLane="best"/>
   <vehicle id="hS2N_207" type="ego_car" route="S2N" depart="1010" departSpeed="10" departLane="best"/>
   <vehicle id="W2E_208" type="ego_car" route="W2E" depart="1011" departSpeed="10" departLane="best"/>
   <vehicle id="hS2N_209" type="ego_car" route="S2N" depart="1011" departSpeed="10" departLane="best"/>
   <vehicle id="hN2S_210" type="ego_car" route="N2S" depart="1015" departSpeed="10" departLane="best"/>
   <vehicle id="hE2W_211" type="ego_car" route="E2W" depart="1019" departSpeed="10" departLane="best"/>
   <vehicle id="hW2E_212" type="ego_car" route="W2E" depart="1024" departSpeed="10" departLane="best"/>
   <vehicle id="hW2E_213" type="ego_car" route="W2E" depart="1029" departSpeed="10" departLane="best"/>
   <vehicle id="hE2W_214" type="ego_car" route="E2W" depart="1031" departSpeed="10" departLane="best"/>
   <vehicle id="hS2N_215" type="ego_car" route="S2N" depart="1031" departSpeed="10" departLane="best"/>
   <vehicle id="hN2S_216" type="ego_car" route="N2S" depart="1032" departSpeed="10" departLane="best"/>
   <vehicle id="hE2W_217" type="ego_car" route="E2W" depart="1040" departSpeed="10" departLane="best"/>
   <vehicle id="hS2N_218" type="ego_car" route="S2N" depart="1046" departSpeed="10" departLane="best"/>
   <vehicle id="S2N_219" type="ego_car" route="S2N" depart="1047" departSpeed="10" departLane="best"/>
   <vehicle id="hS2N_220" type="ego_car" route="S2N" depart="1053" departSpeed="10" departLane="best"/>
   <vehicle id="hS2N_221" type="ego_car" route="S2N" depart="1057" departSpeed="10" departLane="best"/>
   <vehicle id="hS2N_222" type="ego_car" route="S2N" depart="1058" departSpeed="10" departLane="best"/>
   <vehicle id="hE2W_223" type="ego_car" route="E2W" depart="1064" departSpeed="10" departLane="best"/>
   <vehicle id="hS2N_224" type="ego_car" route="S2N" depart="1068" departSpeed="10" departLane="best"/>
   <vehicle id="N2S_225" type="ego_car" route="N2S" depart="1072" departSpeed="10" departLane="best"/>
   <vehicle id="hN2S_226" type="ego_car" route="N2S" depart="1081" departSpeed="10" departLane="best"/>
   <vehicle id="hE2W_227" type="ego_car" route="E2W" depart="1082" departSpeed="10" departLane="best"/>
   <vehicle id="hW2E_228" type="ego_car" route="W2E" depart="1084" departSpeed="10" departLane="best"/>
   <vehicle id="S2N_229" type="ego_car" route="S2N" depart="1089" departSpeed="10" departLane="best"/>
   <vehicle id="hW2E_230" type="ego_car" route="W2E" depart="1090" departSpeed="10" departLane="best"/>
   <vehicle id="S2N_231" type="ego_car" route="S2N" depart="1097" departSpeed="10" departLane="best"/>
   <vehicle id="E2W_232" type="ego_car" route="E2W" depart="1100" departSpeed="10" departLane="best"/>
   <vehicle id="hS2N_233" type="ego_car" route="S2N" depart="1104" departSpeed="10" departLane="best"/>
   <vehicle id="hN2S_234" type="ego_car" route="N2S" depart="1106" departSpeed="10" departLane="best"/>
   <vehicle id="W2E_235" type="ego_car" route="W2E" depart="1107" departSpeed="10" departLane="best"/>
   <vehicle id="N2S_236" type="ego_car" route="N2S" depart="1111" departSpeed="10" departLane="best"/>
   <vehicle id="hS2N_237" type="ego_car" route="S2N" depart="1116" departSpeed="10" departLane="best"/>
   <vehicle id="N2S_238" type="ego_car" route="N2S" depart="1120" departSpeed="10" departLane="best"/>
   <vehicle id="hN2S_239" type="ego_car" route="N2S" depart="1120" departSpeed="10" departLane="best"/>
   <vehicle id="hW2E_240" type="ego_car" route="W2E" depart="1125" departSpeed="10" departLane="best"/>
   <vehicle id="hS2N_241" type="ego_car" route="S2N" depart="1125" departSpeed="10" departLane="best"/>
   <vehicle id="hW2E_242" type="ego_car" route="W2E" depart="1129" departSpeed="10" departLane="best"/>
   <vehicle id="hE2W_243" type="ego_car" route="E2W" depart="1130" departSpeed="10" departLane="best"/>
   <vehicle id="hS2N_244" type="ego_car" route="S2N" depart="1137" departSpeed="10" departLane="best"/>
   <vehicle id="S2N_245" type="ego_car" route="S2N" depart="1138" departSpeed="10" departLane="best"/>
   <vehicle id="hS2N_246" type="ego_car" route="S2N" depart="1140" departSpeed="10" departLane="best"/>
   <vehicle id="W2E_247" type="ego_car" route="W2E" depart="1143" departSpeed="10" departLane="best"/>
   <vehicle id="hS2N_248" type="ego_car" route="S2N" depart="1143" departSpeed="10" departLane="best"/>
   <vehicle id="hE2W_249" type="ego_car" route="E2W" depart="1160" departSpeed="10" departLane="best"/>
   <vehicle id="hW2E_250" type="ego_car" route="W2E" depart="1165" departSpeed="10" departLane="best"/>
   <vehicle id="hS2N_251" type="ego_car" route="S2N" depart="1171" departSpeed="10" departLane="best"/>
   <vehicle id="hE2W_252" type="ego_car" route="E2W" depart="1177" departSpeed="10" departLane="best"/>
   <vehicle id="E2W_253" type="ego_car" route="E2W" depart="1178" departSpeed="10" departLane="best"/>
   <vehicle id="hW2E_254" type="ego_car" route="W2E" depart="1179" departSpeed="10" departLane="best"/>
   <vehicle id="hW2E_255" type="ego_car" route="W2E" depart="1180" departSpeed="10" departLane="best"/>
   <vehicle id="hS2N_256" type="ego_car" route="S2N" depart="1185" departSpeed="10" departLane="best"/>
   <vehicle id="S2N_257" type="ego_car" route="S2N" depart="1194" departSpeed="10" departLane="best"/>
   <vehicle id="S2N_258" type="ego_car" route="S2N" depart="1204" departSpeed="10" departLane="best"/>
   <vehicle id="hW2E_259" type="ego_car" route="W2E" depart="1207" departSpeed="10" departLane="best"/>
   <vehicle id="hN2S_260" type="ego_car" route="N2S" depart="1207" departSpeed="10" departLane="best"/>
   <vehicle id="hW2E_261" type="ego_car" route="W2E" depart="1214" departSpeed="10" departLane="best"/>
   <vehicle id="hW2E_262" type="ego_car" route="W2E" depart="1215" departSpeed="10" departLane="best"/>
   <vehicle id="hS2N_263" type="ego_car" route="S2N" depart="1217" departSpeed="10" departLane="best"/>
   <vehicle id="E2W_264" type="ego_car" route="E2W" depart="1220" departSpeed="10" departLane="best"/>
   <vehicle id="hN2S_265" type="ego_car" route="N2S" depart="1224" departSpeed="10" departLane="best"/>
   <vehicle id="hE2W_266" type="ego_car" route="E2W" depart="1227" departSpeed="10" departLane="best"/>
   <vehicle id="hN2S_267" type="ego_car" route="N2S" depart="1229" departSpeed="10" departLane="best"/>
   <vehicle id="hW2E_268" type="ego_car" route="W2E" depart="1230" departSpeed="10" departLane="best"/>
   <vehicle id="hN2S_269" type="ego_car" route="N2S" depart="1236" departSpeed="10" departLane="best"/>
   <vehicle id="N2S_270" type="ego_car" route="N2S" depart="1245" departSpeed="10" departLane="best"/>
   <vehicle id="hW2E_271" type="ego_car" route="W2E" depart="1249" departSpeed="10" departLane="best"/>
   <vehicle id="hE2W_272" type="ego_car" route="E2W" depart="1254" departSpeed="10" departLane="best"/>
   <vehicle id="hN2S_273" type="ego_car" route="N2S" depart="1255" departSpeed="10" departLane="best"/>
   <vehicle id="hS2N_274" type="ego_car" route="S2N" depart="1260" departSpeed="10" departLane="best"/>
   <vehicle id="N2S_275" type="ego_car" route="N2S" depart="1262" departSpeed="10" departLane="best"/>
   <vehicle id="N2S_276" type="ego_car" route="N2S" depart="1265" departSpeed="10" departLane="best"/>
   <vehicle id="W2E_277" type="ego_car" route="W2E" depart="1269" departSpeed="10" departLane="best"/>
   <vehicle id="hS2N_278" type="ego_car" route="S2N" depart="1269" departSpeed="10" departLane="best"/>
   <vehicle id="hN2S_279" type="ego_car" route="N2S" depart="1273" departSpeed="10" departLane="best"/>
   <vehicle id="hN2S_280" type="ego_car" route="N2S" depart="1276" departSpeed="10" departLane="best"/>
   <vehicle id="hN2S_281" type="ego_car" route="N2S" depart="1277" departSpeed="10" departLane="best"/>
   <vehicle id="S2N_282" type="ego_car" route="S2N" depart="1278" departSpeed="10" departLane="best"/>
   <vehicle id="hS2N_283" type="ego_car" route="S2N" depart="1283" departSpeed="10" departLane="best"/>
   <vehicle id="hW2E_284" type="ego_car" route="W2E" depart="1284" departSpeed="10" departLane="best"/>
   <vehicle id="hS2N_285" type="ego_car" route="S2N" depart="1284" departSpeed="10" departLane="best"/>
   <vehicle id="hS2N_286" type="ego_car" route="S2N" depart="1285" departSpeed="10" departLane="best"/>
   <vehicle id="hW2E_287" type="ego_car" route="W2E" depart="1288" departSpeed="10" departLane="best"/>
   <vehicle id="W2E_288" type="ego_car" route="W2E" depart="1291" departSpeed="10" departLane="best"/>