<routes>

        <vType id = 'ego_car' vclass="evehicle" emissionClass="Energy" tau="1.5" accel="3.0" decel="3.0" color="#00FFFF" sigma="0.2" length="4.90" minGap="1.0" maxSpeed="20" carFollowing="IDM" guiShape="passenger"/>

        <route id="N2S" edges="NS -SN"/>
        <route id="S2N" edges="SN -NS"/>
        <route id="W2E" edges="WE -EW"/>
        <route id="E2W" edges="EW -WE"/>
   <vehicle id="hN2S_1" type="ego_car" route="N2S" depart="59" departSpeed="10" departLane="best"/>
   <vehicle id="W2E_2" type="ego_car" route="W2E" depart="83" departSpeed="10" departLane="best"/>
   <vehicle id="hW2E_3" type="ego_car" route="W2E" depart="104" departSpeed="10" departLane="best"/>
   <vehicle id="E2W_4" type="ego_car" route="E2W" depart="134" departSpeed="10" departLane="best"/>
   <vehicle id="hS2N_5" type="ego_car" route="S2N" depart="142" departSpeed="10" departLane="best"/>
   <vehicle id="hN2S_6" type="ego_car" route="N2S" depart="162" departSpeed="10" departLane="best"/>
   <vehicle id="hS2N_7" type="ego_car" route="S2N" depart="175" departSpeed="10" departLane="best"/>
   <vehicle id="N2S_8" type="ego_car" route="N2S" depart="187" departSpeed="10" departLane="best"/>
   <vehicle id="hN2S_9" type="ego_car" route="N2S" depart="193" departSpeed="10" departLane="best"/>
   <vehicle id="N2S_10" type="ego_car" route="N2S" depart="201" departSpeed="10" departLane="best"/>
   <vehicle id="N2S_11" type="ego_car" route="N2S" depart="219" departSpeed="10" departLane="best"/>
   <vehicle id="hW2E_12" type="ego_car" route="W2E" depart="220" departSpeed="10" departLane="best"/>
   <vehicle id="E2W_13" type="ego_car" route="E2W" depart="240" departSpeed="10" departLane="best"/>
   <vehicle id="S2N_14" type="ego_car" route="S2N" depart="252" departSpeed="10" departLane="best"/>
   <vehicle id="hE2W_15" type="ego_car" route="E2W" depart="255" departSpeed="10" departLane="best"/>
   <vehicle id="hS2N_16" type="ego_car" route="S2N" depart="260" departSpeed="10" departLane="best"/>
   <vehicle id="S2N_17" type="ego_car" route="S2N" depart="275" departSpeed="10" departLane="best"/>
   <vehicle id="hW2E_18" type="ego_car" route="W2E" depart="283" departSpeed="10" departLane="best"/>
   <vehicle id="hN2S_19" type="ego_car" route="N2S" depart="284" departSpeed="10" departLane="best"/>
   <vehicle id="W2E_20" type="ego_car" route="W2E" depart="285" departSpeed="10" departLane="best"/>
   <vehicle id="hS2N_21" type="ego_car" route="S2N" depart="289" departSpeed="10" departLane="best"/>
   <vehicle id="hN2S_22" type="ego_car" route="N2S" depart="295" departSpeed="10" departLane="best"/>
   <vehicle id="hE2W_23" type="ego_car" route="E2W" depart="296" departSpeed="10" departLane="best"/>
   <vehicle id="W2E_24" type="ego_car" route="W2E" depart="300" departSpeed="10" departLane="best"/>
   <vehicle id="hE2W_25" type="ego_car" route="E2W" depart="306" departSpeed="10" departLane="best"/>
   <vehicle id="hW2E_26" type="ego_car" route="W2E" depart="319" departSpeed="10" departLane="best"/>
   <vehicle id="S2N_27" type="ego_car" route="S2N" depart="336" departSpeed="10" departLane="best"/>
   <vehicle id="E2W_28" type="ego_car" route="E2W" depart="345" departSpeed="10" departLane="best"/>
   <vehicle id="hN2S_29" type="ego_car" route="N2S" depart="346" departSpeed="10" departLane="best"/>
   <vehicle id="hW2E_30" type="ego_car" route="W2E" depart="352" departSpeed="10" departLane="best"/>
   <vehicle id="hW2E_31" type="ego_car" route="W2E" depart="356" departSpeed="10" departLane="best"/>
   <vehicle id="hE2W_32" type="ego_car" route="E2W" depart="357" departSpeed="10" departLane="best"/>
   <vehicle id="hN2S_33" type="ego_car" route="N2S" depart="361" departSpeed="10" departLane="best"/>
   <vehicle id="hE2W_34" type="ego_car" route="E2W" depart="362" departSpeed="10" departLane="best"/>
   <vehicle id="hW2E_35" type="ego_car" route="W2E" depart="362" departSpeed="10" departLane="best"/>
   <vehicle id="hN2S_36" type="ego_car" route="N2S" depart="368" departSpeed="10" departLane="best"/>
   <vehicle id="hS2N_37" type="ego_car" route="S2N" depart="372" departSpeed="10" departLane="best"/>
   <vehicle id="hN2S_38" type="ego_car" route="N2S" depart="374" departSpeed="10" departLane="best"/>
   <vehicle id="hW2E_39" type="ego_car" route="W2E" depart="384" departSpeed="10" departLane="best"/>
   <vehicle id="hS2N_40" type="ego_car" route="S2N" depart="388" departSpeed="10" departLane="best"/>
   <vehicle id="hE2W_41" type="ego_car" route="E2W" depart="396" departSpeed="10" departLane="best"/>
   <vehicle id="W2E_42" type="ego_car" route="W2E" depart="397" departSpeed="10" departLane="best"/>
   <vehicle id="W2E_43" type="ego_car" route="W2E" depart="403" departSpeed="10" departLane="best"/>
   <vehicle id="hE2W_44" type="ego_car" route="E2W" depart="405" departSpeed="10" departLane="best"/>
   <vehicle id="S2N_45" type="ego_car" route="S2N" depart="406" departSpeed="10" departLane="best"/>
   <vehicle id="N2S_46" type="ego_car" route="N2S" depart="406" departSpeed="10" departLane="best"/>
   <vehicle id="S2N_47" type="ego_car" route="S2N" depart="418" departSpeed="10" departLane="best"/>
   <vehicle id="hW2E_48" type="ego_car" route="W2E" depart="423" departSpeed="10" departLane="best"/>
   <vehicle id="hS2N_49" type="ego_car" route="S2N" depart="424" departSpeed="10" departLane="best"/>
   <vehicle id="hE2W_50" type="ego_car" route="E2W" depart="425" departSpeed="10" departLane="best"/>
   <vehicle id="hS2N_51" type="ego_car" route="S2N" depart="427" departSpeed="10" departLane="best"/>
   <vehicle id="W2E_52" type="ego_car" route="W2E" depart="430" departSpeed="10" departLane="best"/>
   <vehicle id="hE2W_53" type="ego_car" route="E2W" depart="432" departSpeed="10" departLane="best"/>
   <vehicle id="hW2E_54" type="ego_car" route="W2E" depart="432" departSpeed="10" departLane="best"/>
   <vehicle id="hW2E_55" type="ego_car" route="W2E" depart="435" departSpeed="10" departLane="best"/>
   <vehicle id="hN2S_56" type="ego_car" route="N2S" depart="442" departSpeed="10" departLane="best"/>
   <vehicle id="S2N_57" type="ego_car" route="S2N" depart="443" departSpeed="10" departLane="best"/>
   <vehicle id="hE2W_58" type="ego_car" route="E2W" depart="453" departSpeed="10" departLane="best"/>
   <vehicle id="E2W_59" type="ego_car" route="E2W" depart="454" departSpeed="10" departLane="best"/>
   <vehicle id="hN2S_60" type="ego_car" route="N2S" depart="457" departSpeed="10" departLane="best"/>
   <vehicle id="hE2W_61" type="ego_car" route="E2W" depart="457" departSpeed="10" departLane="best"/>
   <vehicle id="hS2N_62" type="ego_car" route="S2N" depart="458" departSpeed="10" departLane="best"/>
   <vehicle id="hE2W_63" type="ego_car" route="E2W" depart="462" departSpeed="10" departLane="best"/>
   <vehicle id="hS2N_64" type="ego_car" route="S2N" depart="466" departSpeed="10" departLane="best"/>
   <vehicle id="hS2N_65" type="ego_car" route="S2N" depart="470" departSpeed="10" departLane="best"/>
   <vehicle id="hE2W_66" type="ego_car" route="E2W" depart="474" departSpeed="10" departLane="best"/>
   <vehicle id="W2E_67" type="ego_car" route="W2E" depart="476" departSpeed="10" departLane="best"/>
   <vehicle id="W2E_68" type="ego_car" route="W2E" depart="476" departSpeed="10" departLane="best"/>
   <vehicle id="hE2W_69" type="ego_car" route="E2W" depart="487" departSpeed="10" departLane="best"/>
   <vehicle id="hW2E_70" type="ego_car" route="W2E" depart="493" departSpeed="10" departLane="best"/>
   <vehicle id="E2W_71" type="ego_car" route="E2W" depart="494" departSpeed="10" departLane="best"/>
   <vehicle id="hS2N_72" type="ego_car" route="S2N" depart="498" departSpeed="10" departLane="best"/>
   <vehicle id="hS2N_73" type="ego_car" route="S2N" depart="503" departSpeed="10" departLane="best"/>
   <vehicle id="hE2W_74" type="ego_car" route="E2W" depart="505" departSpeed="10" departLane="best"/>
   <vehicle id="hE2W_75" type="ego_car" route="E2W" depart="508" departSpeed="10" departLane="best"/>
   <vehicle id="hW2E_76" type="ego_car" route="W2E" depart="515" departSpeed="10" departLane="best"/>
   <vehicle id="hN2S_77" type="ego_car" route="N2S" depart="521" departSpeed="10" departLane="best"/>
   <vehicle id="hS2N_78" type="ego_car" route="S2N" depart="528" departSpeed="10" departLane="best"/>
   <vehicle id="hS2N_79" type="ego_car" route="S2N" depart="529" departSpeed="10" departLane="best"/>
   <vehicle id="N2S_80" type="ego_car" route="N2S" depart="541" departSpeed="10" departLane="best"/>
   <vehicle id="hE2W_81" type="ego_car" route="E2W" depart="541" departSpeed="10" departLane="best"/>
   <vehicle id="hE2W_82" type="ego_car" route="E2W" depart="543" departSpeed="10" departLane="best"/>
   <vehicle id="hE2W_83" type="ego_car" route="E2W" depart="545" departSpeed="10" departLane="best"/>
   <vehicle id="hE2W_84" type="ego_car" route="E2W" depart="546" departSpeed="10" departLane="best"/>
   <vehicle id="hS2N_85" type="ego_car" route="S2N" depart="552" departSpeed="10" departLane="best"/>
   <vehicle id="E2W_86" type="ego_car" route="E2W" depart="556" departSpeed="10" departLane="best"/>
   <vehicle id="hW2E_87" type="ego_car" route="W2E" depart="557" departSpeed="10" departLane="best"/>
   <vehicle id="hN2S_88" type="ego_car" route="N2S" depart="560" departSpeed="10" departLane="best"/>
   <vehicle id="E2W_89" type="ego_car" route="E2W" depart="562" departSpeed="10" departLane="best"/>
   <vehicle id="W2E_90" type="ego_car" route="W2E" depart="568" departSpeed="10" departLane="best"/>
   <vehicle id="N2S_91" type="ego_car" route="N2S" depart="571" departSpeed="10" departLane="best"/>
   <vehicle id="hE2W_92" type="ego_car" route="E2W" depart="572" departSpeed="10" departLane="best"/>
   <vehicle id="hE2W_93" type="ego_car" route="E2W" depart="576" departSpeed="10" departLane="best"/>
   <vehicle id="hN2S_94" type="ego_car" route="N2S" depart="581" departSpeed="10" departLane="best"/>
   <vehicle id="W2E_95" type="ego_car" route="W2E" depart="581" departSpeed="10" departLane="best"/>
   <vehicle id="hS2N_96" type="ego_car" route="S2N" depart="590" departSpeed="10" departLane="best"/>
   <vehicle id="hW2E_97" type="ego_car" route="W2E" depart="601" departSpeed="10" departLane="best"/>
   <vehicle id="hW2E_98" type="ego_car" route="W2E" depart="609" departSpeed="10" departLane="best"/>
   <vehicle id="hN2S_99" type="ego_car" route="N2S" depart="619" departSpeed="10" departLane="best"/>
   <vehicle id="hN2S_100" type="ego_car" route="N2S" depart="621" departSpeed="10" departLane="best"/>
   <vehicle id="N2S_101" type="ego_car" route="N2S" depart="623" departSpeed="10" departLane="best"/>
   <vehicle id="hE2W_102" type="ego_car" route="E2W" depart="628" departSpeed="10" departLane="best"/>
   <vehicle id="hW2E_103" type="ego_car" route="W2E" depart="629" departSpeed="10" departLane="best"/>
   <vehicle id="hS2N_104" type="ego_car" route="S2N" depart="631" departSpeed="10" departLane="best"/>
   <vehicle id="hE2W_105" type="ego_car" route="E2W" depart="631" departSpeed="10" departLane="best"/>
   <vehicle id="hW2E_106" type="ego_car" route="W2E" depart="637" departSpeed="10" departLane="best"/>
   <vehicle id="N2S_107" type="ego_car" route="N2S" depart="639" departSpeed="10" departLane="best"/>
   <vehicle id="hW2E_108" type="ego_car" route="W2E" depart="648" departSpeed="10" departLane="best"/>
   <vehicle id="hS2N_109" type="ego_car" route="S2N" depart="649" departSpeed="10" departLane="best"/>
   <vehicle id="hW2E_110" type="ego_car" route="W2E" depart="649" departSpeed="10" departLane="best"/>
   <vehicle id="hN2S_111" type="ego_car" route="N2S" depart="654" departSpeed="10" departLane="best"/>
   <vehicle id="hS2N_112" type="ego_car" route="S2N" depart="656" departSpeed="10" departLane="best"/>
   <vehicle id="hE2W_113" type="ego_car" route="E2W" depart="660" departSpeed="10" departLane="best"/>
   <vehicle id="W2E_114" type="ego_car" route="W2E" depart="663" departSpeed="10" departLane="best"/>
   <vehicle id="hE2W_115" type="ego_car" route="E2W" depart="666" departSpeed="10" departLane="best"/>
   <vehicle id="hN2S_116" type="ego_car" route="N2S" depart="674" departSpeed="10" departLane="best"/>
   <vehicle id="hN2S_117" type="ego_car" route="N2S" depart="674" departSpeed="10" departLane="best"/>
   <vehicle id="hW2E_118" type="ego_car" route="W2E" depart="678" departSpeed="10" departLane="best"/>
   <vehicle id="hW2E_119" type="ego_car" route="W2E" depart="679" departSpeed="10" departLane="best"/>
   <vehicle id="S2N_120" type="ego_car" route="S2N" depart="687" departSpeed="10" departLane="best"/>
   <vehicle id="hW2E_121" type="ego_car" route="W2E" depart="687" departSpeed="10" departLane="best"/>
   <vehicle id="hE2W_122" type="ego_car" route="E2W" depart="691" departSpeed="10" departLane="best"/>
   <vehicle id="hE2W_123" type="ego_car" route="E2W" depart="691" departSpeed="10" departLane="best"/>
   <vehicle id="hS2N_124" type="ego_car" route="S2N" depart="694" departSpeed="10" departLane="best"/>
   <vehicle id="E2W_125" type="ego_car" route="E2W" depart="698" departSpeed="10" departLane="best"/>
   <vehicle id="hW2E_126" type="ego_car" route="W2E" depart="704" departSpeed="10" departLane="best"/>
   <vehicle id="W2E_127" type="ego_car" route="W2E" depart="713" departSpeed="10" departLane="best"/>
   <vehicle id="hW2E_128" type="ego_car" route="W2E" depart="714" departSpeed="10" departLane="best"/>
   <vehicle id="hW2E_129" type="ego_car" route="W2E" depart="716" departSpeed="10" departLane="best"/>
   <vehicle id="hE2W_130" type="ego_car" route="E2W" depart="723" departSpeed="10" departLane="best"/>
   <vehicle id="hN2S_131" type="ego_car" route="N2S" depart="733" departSpeed="10" departLane="best"/>
   <vehicle id="N2S_132" type="ego_car" route="N2S" depart="741" departSpeed="10" departLane="best"/>
   <vehicle id="hE2W_133" type="ego_car" route="E2W" depart="742" departSpeed="10" departLane="best"/>
   <vehicle id="hE2W_134" type="ego_car" route="E2W" depart="745" departSpeed="10" departLane="best"/>
   <vehicle id="E2W_135" type="ego_car" route="E2W" depart="766" departSpeed="10" departLane="best"/>
   <vehicle id="hW2E_136" type="ego_car" route="W2E" depart="773" departSpeed="10" departLane="best"/>
   <vehicle id="N2S_137" type="ego_car" route="N2S" depart="775" departSpeed="10" departLane="best"/>
   <vehicle id="hE2W_138" type="ego_car" route="E2W" depart="775" departSpeed="10" departLane="best"/>
   <vehicle id="hE2W_139" type="ego_car" route="E2W" depart="776" departSpeed="10" departLane="best"/>
   <vehicle id="S2N_140" type="ego_car" route="S2N" depart="779" departSpeed="10" departLane="best"/>
   <vehicle id="hN2S_141" type="ego_car" route="N2S" depart="779" departSpeed="10" departLane="best"/>
   <vehicle id="hW2E_142" type="ego_car" route="W2E" depart="781" departSpeed="10" departLane="best"/>
   <vehicle id="hE2W_143" type="ego_car" route="E2W" depart="789" departSpeed="10" departLane="best"/>
   <vehicle id="hN2S_144" type="ego_car" route="N2S" depart="791" departSpeed="10" departLane="best"/>
   <vehicle id="hS2N_145" type="ego_car" route="S2N" depart="793" departSpeed="10" departLane="best"/>
   <vehicle id="S2N_146" type="ego_car" route="S2N" depart="793" departSpeed="10" departLane="best"/>
   <vehicle id="hN2S_147" type="ego_car" route="N2S" depart="793" departSpeed="10" departLane="best"/>
   <vehicle id="hN2S_148" type="ego_car" route="N2S" depart="795" departSpeed="10" departLane="best"/>
   <vehicle id="S2N_149" type="ego_car" route="S2N" depart="798" departSpeed="10" departLane="best"/>
   <vehicle id="hN2S_150" type="ego_car" route="N2S" depart="798" departSpeed="10" departLane="best"/>
   <vehicle id="hN2S_151" type="ego_car" route="N2S" depart="802" departSpeed="10" departLane="best"/>
   <vehicle id="hS2N_152" type="ego_car" route="S2N" depart="806" departSpeed="10" departLane="best"/>
   <vehicle id="hS2N_153" type="ego_car" route="S2N" depart="808" departSpeed="10" departLane="best"/>
   <vehicle id="hS2N_154" type="ego_car" route="S2N" depart="813" departSpeed="10" departLane="best"/>
   <vehicle id="W2E_155" type="ego_car" route="W2E" depart="823" departSpeed="10" departLane="best"/>
   <vehicle id="W2E_156" type="ego_car" route="W2E" depart="832" departSpeed="10" departLane="best"/>
   <vehicle id="hN2S_157" type="ego_car" route="N2S" depart="833" departSpeed="10" departLane="best"/>
   <vehicle id="hE2W_158" type="ego_car" route="E2W" depart="833" departSpeed="10" departLane="best"/>
   <vehicle id="E2W_159" type="ego_car" route="E2W" depart="835" departSpeed="10" departLane="best"/>
   <vehicle id="N2S_160" type="ego_car" route="N2S" depart="836" departSpeed="10" departLane="best"/>
   <vehicle id="E2W_161" type="ego_car" route="E2W" depart="840" departSpeed="10" departLane="best"/>
   <vehicle id="hS2N_162" type="ego_car" route="S2N" depart="846" departSpeed="10" departLane="best"/>
   <vehicle id="E2W_163" type="ego_car" route="E2W" depart="846" departSpeed="10" departLane="best"/>
   <vehicle id="hS2N_164" type="ego_car" route="S2N" depart="848" departSpeed="10" departLane="best"/>
   <vehicle id="hS2N_165" type="ego_car" route="S2N" depart="849" departSpeed="10" departLane="best"/>
   <vehicle id="W2E_166" type="ego_car" route="W2E" depart="852" departSpeed="10" departLane="best"/>
   <vehicle id="S2N_167" type="ego_car" route="S2N" depart="862" departSpeed="10" departLane="best"/>
   <vehicle id="hW2E_168" type="ego_car" route="W2E" depart="870" departSpeed="10" departLane="best"/>
   <vehicle id="W2E_169" type="ego_car" route="W2E" depart="874" departSpeed="10" departLane="best"/>
   <vehicle id="N2S_170" type="ego_car" route="N2S" depart="878" departSpeed="10" departLane="best"/>
   <vehicle id="hS2N_171" type="ego_car" route="S2N" depart="883" departSpeed="10" departLane="best"/>
   <vehicle id="hE2W_172" type="ego_car" route="E2W" depart="887" departSpeed="10" departLane="best"/>
   <vehicle id="hE2W_173" type="ego_car" route="E2W" depart="888" departSpeed="10" departLane="best"/>
   <vehicle id="hE2W_174" type="ego_car" route="E2W" depart="892" departSpeed="10" departLane="best"/>
   <vehicle id="hS2N_175" type="ego_car" route="S2N" depart="896" departSpeed="10" departLane="best"/>
   <vehicle id="S2N_176" type="ego_car" route="S2N" depart="902" departSpeed="10" departLane="best"/>
   <vehicle id="E2W_177" type="ego_car" route="E2W" depart="907" departSpeed="10" departLane="best"/>
   <vehicle id="hS2N_178" type="ego_car" route="S2N" depart="908" departSpeed="10" departLane="best"/>
   <vehicle id="hW2E_179" type="ego_car" route="W2E" depart="912" departSpeed="10" departLane="best"/>
   <vehicle id="hE2W_180" type="ego_car" route="E2W" depart="914" departSpeed="10" departLane="best"/>
   <vehicle id="hN2S_181" type="ego_car" route="N2S" depart="917" departSpeed="10" departLane="best"/>
   <vehicle id="hE2W_182" type="ego_car" route="E2W" depart="922" departSpeed="10" departLane="best"/>
   <vehicle id="hE2W_183" type="ego_car" route="E2W" depart="925" departSpeed="10" departLane="best"/>
   <vehicle id="E2W_184" type="ego_car" route="E2W" depart="928" departSpeed="10" departLane="best"/>
   <vehicle id="hW2E_185" type="ego_car" route="W2E" depart="930" departSpeed="10" departLane="best"/>
   <vehicle id="hE2W_186" type="ego_car" route="E2W" depart="931" departSpeed="10" departLane="best"/>
   <vehicle id="hW2E_187" type="ego_car" route="W2E" depart="940" departSpeed="10" departLane="best"/>
   <vehicle id="S2N_188" type="ego_car" route="S2N" depart="941" departSpeed="10" departLane="best"/>
   <vehicle id="N2S_189" type="ego_car" route="N2S" depart="943" departSpeed="10" departLane="best"/>
   <vehicle id="hW2E_190" type="ego_car" route="W2E" depart="945" departSpeed="10" departLane="best"/>
   <vehicle id="hS2N_191" type="ego_car" route="S2N" depart="950" departSpeed="10" departLane="best"/>
   <vehicle id="hW2E_192" type="ego_car" route="W2E" depart="957" departSpeed="10" departLane="best"/>
   <vehicle id="S2N_193" type="ego_car" route="S2N" depart="962" departSpeed="10" departLane="best"/>
   <vehicle id="hS2N_194" type="ego_car" route="S2N" depart="965" departSpeed="10" departLane="best"/>
   <vehicle id="hN2S_195" type="ego_car" route="N2S" depart="966" departSpeed="10" departLane="best"/>
   <vehicle id="hW2E_196" type="ego_car" route="W2E" depart="966" departSpeed="10" departLane="best"/>
   <vehicle id="hW2E_197" type="ego_car" route="W2E" depart="969" departSpeed="10" departLane="best"/>
   <vehicle id="N2S_198" type="ego_car" route="N2S" depart="971" departSpeed="10" departLane="best"/>
   <vehicle id="hN2S_199" type="ego_car" route="N2S" depart="974" departSpeed="10" departLane="best"/>
   <vehicle id="hN2S_200" type="ego_car" route="N2S" depart="976" departSpeed="10" departLane="best"/>
   <vehicle id="hN2S_201" type="ego_car" route="N2S" depart="979" departSpeed="10" departLane="best"/>
   <vehicle id="hN2S_202" type="ego_car" route="N2S" depart="981" departSpeed="10" departLane="best"/>
   <vehicle id="hN2S_203" type="ego_car" route="N2S" depart="987" departSpeed="10" departLane="best"/>
   <vehicle id="N2S_204" type="ego_car" route="N2S" depart="996" departSpeed="10" departLane="best"/>
   <vehicle id="hE2W_205" type="ego_car" route="E2W" depart="997" departSpeed="10" departLane="best"/>
   <vehicle id="N2S_206" type="ego_car" route="N2S" depart="1004" departSpeed="10" departLane="best"/>
   <vehicle id="hW2E_207" type="ego_car" route="W2E" depart="1004" departSpeed="10" departLane="best"/>
   <vehicle id="N2S_208" type="ego_car" route="N2S" depart="1006" departSpeed="10" departLane="best"/>
   <vehicle id="hW2E_209" type="ego_car" route="W2E" depart="1007" departSpeed="10" departLane="best"/>
   <vehicle id="hS2N_210" type="ego_car" route="S2N" depart="1013" departSpeed="10" departLane="best"/>
   <vehicle id="hN2S_211" type="ego_car" route="N2S" depart="1013" departSpeed="10" departLane="best"/>
   <vehicle id="hN2S_212" type="ego_car" route="N2S" depart="1014" departSpeed="10" departLane="best"/>
   <vehicle id="hS2N_213" type="ego_car" route="S2N" depart="1016" departSpeed="10" departLane="best"/>
   <vehicle id="hE2W_214" type="ego_car" route="E2W" depart="1016" departSpeed="10" departLane="best"/>
   <vehicle id="hN2S_215" type="ego_car" route="N2S" depart="1017" departSpeed="10" departLane="best"/>
   <vehicle id="hE2W_216" type="ego_car" route="E2W" depart="1017" departSpeed="10" departLane="best"/>
   <vehicle id="hS2N_217" type="ego_car" route="S2N" depart="1021" departSpeed="10" departLane="best"/>
   <vehicle id="hS2N_218" type="ego_car" route="S2N" depart="1021" departSpeed="10" departLane="best"/>
   <vehicle id="E2W_219" type="ego_car" route="E2W" depart="1021" departSpeed="10" departLane="best"/>
   <vehicle id="hN2S_220" type="ego_car" route="N2S" depart="1022" departSpeed="10" departLane="best"/>
   <vehicle id="hN2S_221" type="ego_car" route="N2S" depart="1024" departSpeed="10" departLane="best"/>
   <vehicle id="hW2E_222" type="ego_car" route="W2E" depart="1031" departSpeed="10" departLane="best"/>
   <vehicle id="hN2S_223" type="ego_car" route="N2S" depart="1031" departSpeed="10" departLane="best"/>
   <vehicle id="hW2E_224" type="ego_car" route="W2E" depart="1032" departSpeed="10" departLane="best"/>
   <vehicle id="S2N_225" type="ego_car" route="S2N" depart="1041" departSpeed="10" departLane="best"/>
   <vehicle id="hW2E_226" type="ego_car" route="W2E" depart="1046" departSpeed="10" departLane="best"/>
   <vehicle id="hW2E_227" type="ego_car" route="W2E" depart="1049" departSpeed="10" departLane="best"/>
   <vehicle id="hE2W_228" type="ego_car" route="E2W" depart="1053" departSpeed="10" departLane="best"/>
   <vehicle id="N2S_229" type="ego_car" route="N2S" depart="1065" departSpeed="10" departLane="best"/>
   <vehicle id="hW2E_230" type="ego_car" route="W2E" depart="1066" departSpeed="10" departLane="best"/>
   <vehicle id="N2S_231" type="ego_car" route="N2S" depart="1067" departSpeed="10" departLane="best"/>
   <vehicle id="S2N_232" type="ego_car" route="S2N" depart="1070" departSpeed="10" departLane="best"/>
   <vehicle id="hE2W_233" type="ego_car" route="E2W" depart="1074" departSpeed="10" departLane="best"/>
   <vehicle id="hW2E_234" type="ego_car" route="W2E" depart="1077" departSpeed="10" departLane="best"/>
   <vehicle id="S2N_235" type="ego_car" route="S2N" depart="1080" departSpeed="10" departLane="best"/>
   <vehicle id="E2W_236" type="ego_car" route="E2W" depart="1083" departSpeed="10" departLane="best"/>
   <vehicle id="hE2W_237" type="ego_car" route="E2W" depart="1091" departSpeed="10" departLane="best"/>
   <vehicle id="W2E_238" type="ego_car" route="W2E" depart="1095" departSpeed="10" departLane="best"/>
   <vehicle id="hS2N_239" type="ego_car" route="S2N" depart="1097" departSpeed="10" departLane="best"/>
   <vehicle id="hE2W_240" type="ego_car" route="E2W" depart="1104" departSpeed="10" departLane="best"/>
   <vehicle id="hW2E_241" type="ego_car" route="W2E" depart="1109" departSpeed="10" departLane="best"/>
   <vehicle id="hN2S_242" type="ego_car" route="N2S" depart="1114" departSpeed="10" departLane="best"/>
   <vehicle id="hS2N_243" type="ego_car" route="S2N" depart="1115" departSpeed="10" departLane="best"/>
   <vehicle id="hW2E_244" type="ego_car" route="W2E" depart="1121" departSpeed="10" departLane="best"/>
   <vehicle id="W2E_245" type="ego_car" route="W2E" depart="1135" departSpeed="10" departLane="best"/>
   <vehicle id="hE2W_246" type="ego_car" route="E2W" depart="1139" departSpeed="10" departLane="best"/>
   <vehicle id="N2S_247" type="ego_car" route="N2S" depart="1149" departSpeed="10" departLane="best"/>
   <vehicle id="hN2S_248" type="ego_car" route="N2S" depart="1153" departSpeed="10" departLane="best"/>
   <vehicle id="hE2W_249" type="ego_car" route="E2W" depart="1153" departSpeed="10" departLane="best"/>
   <vehicle id="hS2N_250" type="ego_car" route="S2N" depart="1156" departSpeed="10" departLane="best"/>
   <vehicle id="hS2N_251" type="ego_car" route="S2N" depart="1161" departSpeed="10" departLane="best"/>
   <vehicle id="hW2E_252" type="ego_car" route="W2E" depart="1161" departSpeed="10" departLane="best"/>
   <vehicle id="N2S_253" type="ego_car" route="N2S" depart="1165" departSpeed="10" departLane="best"/>
   <vehicle id="hW2E_254" type="ego_car" route="W2E" depart="1171" departSpeed="10" departLane="best"/>
   <vehicle id="hE2W_255" type="ego_car" route="E2W" depart="1171" departSpeed="10" departLane="best"/>
   <vehicle id="hN2S_256" type="ego_car" route="N2S" depart="1175" departSpeed="10" departLane="best"/>
   <vehicle id="N2S_257" type="ego_car" route="N2S" depart="1176" departSpeed="10" departLane="best"/>
   <vehicle id="N2S_258" type="ego_car" route="N2S" depart="1178" departSpeed="10" departLane="best"/>
   <vehicle id="hS2N_259" type="ego_car" route="S2N" depart="1189" departSpeed="10" departLane="best"/>
   <vehicle id="hE2W_260" type="ego_car" route="E2W" depart="1191" departSpeed="10" departLane="best"/>
   <vehicle id="hW2E_261" type="ego_car" route="W2E" depart="1198" departSpeed="10" departLane="best"/>
   <vehicle id="hW2E_262" type="ego_car" route="W2E" depart="1206" departSpeed="10" departLane="best"/>
   <vehicle id="hS2N_263" type="ego_car" route="S2N" depart="1213" departSpeed="10" departLane="best"/>
   <vehicle id="N2S_264" type="ego_car" route="N2S" depart="1217" departSpeed="10" departLane="best"/>
   <vehicle id="hW2E_265" type="ego_car" route="W2E" depart="1222" departSpeed="10" departLane="best"/>
   <vehicle id="hN2S_266" type="ego_car" route="N2S" depart="1226" departSpeed="10" departLane="best"/>
   <vehicle id="hS2N_267" type="ego_car" route="S2N" depart="1231" departSpeed="10" departLane="best"/>
   <vehicle id="hS2N_268" type="ego_car" route="S2N" depart="1234" departSpeed="10" departLane="best"/>
   <vehicle id="hW2E_269" type="ego_car" route="W2E" depart="1234" departSpeed="10" departLane="best"/>
   <vehicle id="E2W_270" type="ego_car" route="E2W" depart="1241" departSpeed="10" departLane="best"/>
   <vehicle id="hN2S_271" type="ego_car" route="N2S" depart="1246" departSpeed="10" departLane="best"/>
   <vehicle id="hN2S_272" type="ego_car" route="N2S" depart="1248" departSpeed="10" departLane="best"/>
   <vehicle id="hS2N_273" type="ego_car" route="S2N" depart="1249" departSpeed="10" departLane="best"/>
   <vehicle id="hS2N_274" type="ego_car" route="S2N" depart="1262" departSpeed="10" departLane="best"/>
   <vehicle id="W2E_275" type="ego_car" route="W2E" depart="1263" departSpeed="10" departLane="best"/>
   <vehicle id="S2N_276" type="ego_car" route="S2N" depart="1265" departSpeed="10" departLane="best"/>
   <vehicle id="N2S_277" type="ego_car" route="N2S" depart="1273" departSpeed="10" departLane="best"/>
   <vehicle id="hN2S_278" type="ego_car" route="N2S" depart="1273" departSpeed="10" departLane="best"/>
   <vehicle id="hN2S_279" type="ego_car" route="N2S" depart="1276" departSpeed="10" departLane="best"/>
   <vehicle id="hE2W_280" type="ego_car" route="E2W" depart="1277" departSpeed="10" departLane="best"/>
   <vehicle id="hS2N_281" type="ego_car" route="S2N" depart="1282" departSpeed="10" departLane="best"/>
   <vehicle id="E2W_282" type="ego_car" route="E2W" depart="1283" departSpeed="10" departLane="best"/>
   <vehicle id="hE2W_283" type="ego_car" route="E2W" depart="1288" departSpeed="10" departLane="best"/>
   <vehicle id="hN2S_284" type="ego_car" route="N2S" depart="1297" departSpeed="10" departLane="best"/>
   <vehicle id="hN2S_285" type="ego_car" route="N2S" depart="1306" departSpeed="10" departLane="best"/>
   <vehicle id="hS2N_286" type="ego_car" route="S2N" depart="1308" departSpeed="10" departLane="best"/>
   <vehicle id="hW2E_287" type="ego_car" route="W2E" depart="1309" departSpeed="10" departLane="best"/>
   <vehicle id="W2E_288" type="ego_car" route="W2E" depart="1312" departSpeed="10" departLane="best"/>