<routes>

        <vType id = 'ego_car' vclass="evehicle" emissionClass="Energy" tau="1.5" accel="3.0" decel="3.0" color="#00FFFF" sigma="0.2" length="4.90" minGap="1.0" maxSpeed="20" carFollowing="IDM" guiShape="passenger"/>

        <route id="N2S" edges="NS -SN"/>
        <route id="S2N" edges="SN -NS"/>
        <route id="W2E" edges="WE -EW"/>
        <route id="E2W" edges="EW -WE"/>
   <vehicle id="hS2N_1" type="ego_car" route="S2N" depart="68" departSpeed="10" departLane="best"/>
   <vehicle id="W2E_2" type="ego_car" route="W2E" depart="81" departSpeed="10" departLane="best"/>
   <vehicle id="hN2S_3" type="ego_car" route="N2S" depart="95" departSpeed="10" departLane="best"/>
   <vehicle id="E2W_4" type="ego_car" route="E2W" depart="112" departSpeed="10" departLane="best"/>
   <vehicle id="hS2N_5" type="ego_car" route="S2N" depart="124" departSpeed="10" departLane="best"/>
   <vehicle id="hE2W_6" type="ego_car" route="E2W" depart="125" departSpeed="10" departLane="best"/>
   <vehicle id="hW2E_7" type="ego_car" route="W2E" depart="167" departSpeed="10" departLane="best"/>
   <vehicle id="S2N_8" type="ego_car" route="S2N" depart="167" departSpeed="10" departLane="best"/>
   <vehicle id="hE2W_9" type="ego_car" route="E2W" depart="167" departSpeed="10" departLane="best"/>
   <vehicle id="E2W_10" type="ego_car" route="E2W" depart="184" departSpeed="10" departLane="best"/>
   <vehicle id="S2N_11" type="ego_car" route="S2N" depart="191" departSpeed="10" departLane="best"/>
   <vehicle id="hN2S_12" type="ego_car" route="N2S" depart="196" departSpeed="10" departLane="best"/>
   <vehicle id="N2S_13" type="ego_car" route="N2S" depart="196" departSpeed="10" departLane="best"/>
   <vehicle id="W2E_14" type="ego_car" route="W2E" depart="197" departSpeed="10" departLane="best"/>
   <vehicle id="hW2E_15" type="ego_car" route="W2E" depart="198" departSpeed="10" departLane="best"/>
   <vehicle id="hW2E_16" type="ego_car" route="W2E" depart="202" departSpeed="10" departLane="best"/>
   <vehicle id="S2N_17" type="ego_car" route="S2N" depart="209" departSpeed="10" departLane="best"/>
   <vehicle id="hW2E_18" type="ego_car" route="W2E" depart="215" departSpeed="10" departLane="best"/>
   <vehicle id="hE2W_19" type="ego_car" route="E2W" depart="218" departSpeed="10" departLane="best"/>
   <vehicle id="N2S_20" type="ego_car" route="N2S" depart="222" departSpeed="10" departLane="best"/>
   <vehicle id="hS2N_21" type="ego_car" route="S2N" depart="235" departSpeed="10" departLane="best"/>
   <vehicle id="hE2W_22" type="ego_car" route="E2W" depart="237" departSpeed="10" departLane="best"/>
   <vehicle id="hE2W_23" type="ego_car" route="E2W" depart="255" departSpeed="10" departLane="best"/>
   <vehicle id="N2S_24" type="ego_car" route="N2S" depart="258" departSpeed="10" departLane="best"/>
   <vehicle id="hE2W_25" type="ego_car" route="E2W" depart="264" departSpeed="10" departLane="best"/>
   <vehicle id="hN2S_26" type="ego_car" route="N2S" depart="266" departSpeed="10" departLane="best"/>
   <vehicle id="W2E_27" type="ego_car" route="W2E" depart="266" departSpeed="10" departLane="best"/>
   <vehicle id="E2W_28" type="ego_car" route="E2W" depart="270" departSpeed="10" departLane="best"/>
   <vehicle id="hS2N_29" type="ego_car" route="S2N" depart="275" departSpeed="10" departLane="best"/>
   <vehicle id="hS2N_30" type="ego_car" route="S2N" depart="277" departSpeed="10" departLane="best"/>
   <vehicle id="hW2E_31" type="ego_car" route="W2E" depart="278" departSpeed="10" departLane="best"/>
   <vehicle id="hS2N_32" type="ego_car" route="S2N" depart="278" departSpeed="10" departLane="best"/>
   <vehicle id="hN2S_33" type="ego_car" route="N2S" depart="280" departSpeed="10" departLane="best"/>
   <vehicle id="hE2W_34" type="ego_car" route="E2W" depart="281" departSpeed="10" departLane="best"/>
   <vehicle id="hW2E_35" type="ego_car" route="W2E" depart="289" departSpeed="10" departLane="best"/>
   <vehicle id="hS2N_36" type="ego_car" route="S2N" depart="294" departSpeed="10" departLane="best"/>
   <vehicle id="hE2W_37" type="ego_car" route="E2W" depart="295" departSpeed="10" departLane="best"/>
   <vehicle id="hS2N_38" type="ego_car" route="S2N" depart="298" departSpeed="10" departLane="best"/>
   <vehicle id="hS2N_39" type="ego_car" route="S2N" depart="304" departSpeed="10" departLane="best"/>
   <vehicle id="hE2W_40" type="ego_car" route="E2W" depart="304" departSpeed="10" departLane="best"/>
   <vehicle id="hN2S_41" type="ego_car" route="N2S" depart="307" departSpeed="10" departLane="best"/>
   <vehicle id="S2N_42" type="ego_car" route="S2N" depart="308" departSpeed="10" departLane="best"/>
   <vehicle id="N2S_43" type="ego_car" route="N2S" depart="311" departSpeed="10" departLane="best"/>
   <vehicle id="hW2E_44" type="ego_car" route="W2E" depart="314" departSpeed="10" departLane="best"/>
   <vehicle id="N2S_45" type="ego_car" route="N2S" depart="315" departSpeed="10" departLane="best"/>
   <vehicle id="E2W_46" type="ego_car" route="E2W" depart="316" departSpeed="10" departLane="best"/>
   <vehicle id="E2W_47" type="ego_car" route="E2W" depart="328" departSpeed="10" departLane="best"/>
   <vehicle id="hN2S_48" type="ego_car" route="N2S" depart="344" departSpeed="10" departLane="best"/>
   <vehicle id="hN2S_49" type="ego_car" route="N2S" depart="346" departSpeed="10" departLane="best"/>
   <vehicle id="hE2W_50" type="ego_car" route="E2W" depart="352" departSpeed="10" departLane="best"/>
   <vehicle id="hE2W_51" type="ego_car" route="E2W" depart="354" departSpeed="10" departLane="best"/>
   <vehicle id="W2E_52" type="ego_car" route="W2E" depart="357" departSpeed="10" departLane="best"/>
   <vehicle id="hN2S_53" type="ego_car" route="N2S" depart="363" departSpeed="10" departLane="best"/>
   <vehicle id="hE2W_54" type="ego_car" route="E2W" depart="371" departSpeed="10" departLane="best"/>
   <vehicle id="hW2E_55" type="ego_car" route="W2E" depart="372" departSpeed="10" departLane="best"/>
   <vehicle id="hN2S_56" type="ego_car" route="N2S" depart="385" departSpeed="10" departLane="best"/>
   <vehicle id="N2S_57" type="ego_car" route="N2S" depart="388" departSpeed="10" departLane="best"/>
   <vehicle id="hN2S_58" type="ego_car" route="N2S" depart="388" departSpeed="10" departLane="best"/>
   <vehicle id="N2S_59" type="ego_car" route="N2S" depart="391" departSpeed="10" departLane="best"/>
   <vehicle id="hN2S_60" type="ego_car" route="N2S" depart="394" departSpeed="10" departLane="best"/>
   <vehicle id="hW2E_61" type="ego_car" route="W2E" depart="395" departSpeed="10" departLane="best"/>
   <vehicle id="hN2S_62" type="ego_car" route="N2S" depart="400" departSpeed="10" departLane="best"/>
   <vehicle id="hE2W_63" type="ego_car" route="E2W" depart="417" departSpeed="10" departLane="best"/>
   <vehicle id="hS2N_64" type="ego_car" route="S2N" depart="427" departSpeed="10" departLane="best"/>
   <vehicle id="hE2W_65" type="ego_car" route="E2W" depart="433" departSpeed="10" departLane="best"/>
   <vehicle id="hW2E_66" type="ego_car" route="W2E" depart="436" departSpeed="10" departLane="best"/>
   <vehicle id="W2E_67" type="ego_car" route="W2E" depart="437" departSpeed="10" departLane="best"/>
   <vehicle id="S2N_68" type="ego_car" route="S2N" depart="439" departSpeed="10" departLane="best"/>
   <vehicle id="hN2S_69" type="ego_car" route="N2S" depart="441" departSpeed="10" departLane="best"/>
   <vehicle id="hE2W_70" type="ego_car" route="E2W" depart="441" departSpeed="10" departLane="best"/>
   <vehicle id="E2W_71" type="ego_car" route="E2W" depart="441" departSpeed="10" departLane="best"/>
   <vehicle id="hE2W_72" type="ego_car" route="E2W" depart="449" departSpeed="10" departLane="best"/>
   <vehicle id="hW2E_73" type="ego_car" route="W2E" depart="452" departSpeed="10" departLane="best"/>
   <vehicle id="hE2W_74" type="ego_car" route="E2W" depart="469" departSpeed="10" departLane="best"/>
   <vehicle id="hE2W_75" type="ego_car" route="E2W" depart="474" departSpeed="10" departLane="best"/>
   <vehicle id="hN2S_76" type="ego_car" route="N2S" depart="484" departSpeed="10" departLane="best"/>
   <vehicle id="hE2W_77" type="ego_car" route="E2W" depart="486" departSpeed="10" departLane="best"/>
   <vehicle id="hN2S_78" type="ego_car" route="N2S" depart="488" departSpeed="10" departLane="best"/>
   <vehicle id="hS2N_79" type="ego_car" route="S2N" depart="489" departSpeed="10" departLane="best"/>
   <vehicle id="W2E_80" type="ego_car" route="W2E" depart="490" departSpeed="10" departLane="best"/>
   <vehicle id="hW2E_81" type="ego_car" route="W2E" depart="494" departSpeed="10" departLane="best"/>
   <vehicle id="hN2S_82" type="ego_car" route="N2S" depart="495" departSpeed="10" departLane="best"/>
   <vehicle id="hE2W_83" type="ego_car" route="E2W" depart="501" departSpeed="10" departLane="best"/>
   <vehicle id="hS2N_84" type="ego_car" route="S2N" depart="504" departSpeed="10" departLane="best"/>
   <vehicle id="hW2E_85" type="ego_car" route="W2E" depart="504" departSpeed="10" departLane="best"/>
   <vehicle id="E2W_86" type="ego_car" route="E2W" depart="504" departSpeed="10" departLane="best"/>
   <vehicle id="hN2S_87" type="ego_car" route="N2S" depart="509" departSpeed="10" departLane="best"/>
   <vehicle id="hS2N_88" type="ego_car" route="S2N" depart="511" departSpeed="10" departLane="best"/>
   <vehicle id="W2E_89" type="ego_car" route="W2E" depart="512" departSpeed="10" departLane="best"/>
   <vehicle id="N2S_90" type="ego_car" route="N2S" depart="513" departSpeed="10" departLane="best"/>
   <vehicle id="N2S_91" type="ego_car" route="N2S" depart="518" departSpeed="10" departLane="best"/>
   <vehicle id="hW2E_92" type="ego_car" route="W2E" depart="520" departSpeed="10" departLane="best"/>
   <vehicle id="hW2E_93" type="ego_car" route="W2E" depart="521" departSpeed="10" departLane="best"/>
   <vehicle id="hS2N_94" type="ego_car" route="S2N" depart="526" departSpeed="10" departLane="best"/>
   <vehicle id="N2S_95" type="ego_car" route="N2S" depart="539" departSpeed="10" departLane="best"/>
   <vehicle id="hE2W_96" type="ego_car" route="E2W" depart="556" departSpeed="10" departLane="best"/>
   <vehicle id="hS2N_97" type="ego_car" route="S2N" depart="559" departSpeed="10" departLane="best"/>
   <vehicle id="hE2W_98" type="ego_car" route="E2W" depart="564" departSpeed="10" departLane="best"/>
   <vehicle id="hN2S_99" type="ego_car" route="N2S" depart="567" departSpeed="10" departLane="best"/>
   <vehicle id="hS2N_100" type="ego_car" route="S2N" depart="574" departSpeed="10" departLane="best"/>
   <vehicle id="N2S_101" type="ego_car" route="N2S" depart="579" departSpeed="10" departLane="best"/>
   <vehicle id="hW2E_102" type="ego_car" route="W2E" depart="590" departSpeed="10" departLane="best"/>
   <vehicle id="hN2S_103" type="ego_car" route="N2S" depart="590" departSpeed="10" departLane="best"/>
   <vehicle id="hW2E_104" type="ego_car" route="W2E" depart="591" departSpeed="10" departLane="best"/>
   <vehicle id="hS2N_105" type="ego_car" route="S2N" depart="594" departSpeed="10" departLane="best"/>
   <vehicle id="hN2S_106" type="ego_car" route="N2S" depart="595" departSpeed="10" departLane="best"/>
   <vehicle id="E2W_107" type="ego_car" route="E2W" depart="597" departSpeed="10" departLane="best"/>
   <vehicle id="hE2W_108" type="ego_car" route="E2W" depart="598" departSpeed="10" departLane="best"/>
   <vehicle id="hW2E_109" type="ego_car" route="W2E" depart="603" departSpeed="10" departLane="best"/>
   <vehicle id="hN2S_110" type="ego_car" route="N2S" depart="603" departSpeed="10" departLane="best"/>
   <vehicle id="hW2E_111" type="ego_car" route="W2E" depart="605" departSpeed="10" departLane="best"/>
   <vehicle id="hW2E_112" type="ego_car" route="W2E" depart="607" departSpeed="10" departLane="best"/>
   <vehicle id="hE2W_113" type="ego_car" route="E2W" depart="607" departSpeed="10" departLane="best"/>
   <vehicle id="S2N_114" type="ego_car" route="S2N" depart="608" departSpeed="10" departLane="best"/>
   <vehicle id="hE2W_115" type="ego_car" route="E2W" depart="608" departSpeed="10" departLane="best"/>
   <vehicle id="hS2N_116" type="ego_car" route="S2N" depart="613" departSpeed="10" departLane="best"/>
   <vehicle id="hE2W_117" type="ego_car" route="E2W" depart="623" departSpeed="10" departLane="best"/>
   <vehicle id="hS2N_118" type="ego_car" route="S2N" depart="624" departSpeed="10" departLane="best"/>
   <vehicle id="hS2N_119" type="ego_car" route="S2N" depart="628" departSpeed="10" departLane="best"/>
   <vehicle id="E2W_120" type="ego_car" route="E2W" depart="629" departSpeed="10" departLane="best"/>
   <vehicle id="hS2N_121" type="ego_car" route="S2N" depart="630" departSpeed="10" departLane="best"/>
   <vehicle id="hW2E_122" type="ego_car" route="W2E" depart="632" departSpeed="10" departLane="best"/>
   <vehicle id="hN2S_123" type="ego_car" route="N2S" depart="652" departSpeed="10" departLane="best"/>
   <vehicle id="hE2W_124" type="ego_car" route="E2W" depart="652" departSpeed="10" departLane="best"/>
   <vehicle id="E2W_125" type="ego_car" route="E2W" depart="654" departSpeed="10" departLane="best"/>
   <vehicle id="hS2N_126" type="ego_car" route="S2N" depart="665" departSpeed="10" departLane="best"/>
   <vehicle id="S2N_127" type="ego_car" route="S2N" depart="666" departSpeed="10" departLane="best"/>
   <vehicle id="hE2W_128" type="ego_car" route="E2W" depart="666" departSpeed="10" departLane="best"/>
   <vehicle id="hS2N_129" type="ego_car" route="S2N" depart="675" departSpeed="10" departLane="best"/>
   <vehicle id="hW2E_130" type="ego_car" route="W2E" depart="678" departSpeed="10" departLane="best"/>
   <vehicle id="hN2S_131" type="ego_car" route="N2S" depart="683" departSpeed="10" departLane="best"/>
   <vehicle id="E2W_132" type="ego_car" route="E2W" depart="686" departSpeed="10" departLane="best"/>
   <vehicle id="hS2N_133" type="ego_car" route="S2N" depart="695" departSpeed="10" departLane="best"/>
   <vehicle id="hW2E_134" type="ego_car" route="W2E" depart="697" departSpeed="10" departLane="best"/>
   <vehicle id="W2E_135" type="ego_car" route="W2E" depart="698" departSpeed="10" departLane="best"/>
   <vehicle id="hS2N_136" type="ego_car" route="S2N" depart="698" departSpeed="10" departLane="best"/>
   <vehicle id="N2S_137" type="ego_car" route="N2S" depart="700" departSpeed="10" departLane="best"/>
   <vehicle id="hW2E_138" type="ego_car" route="W2E" depart="717" departSpeed="10" departLane="best"/>
   <vehicle id="hN2S_139" type="ego_car" route="N2S" depart="725" departSpeed="10" departLane="best"/>
   <vehicle id="N2S_140" type="ego_car" route="N2S" depart="739" departSpeed="10" departLane="best"/>
   <vehicle id="hN2S_141" type="ego_car" route="N2S" depart="740" departSpeed="10" departLane="best"/>
   <vehicle id="hS2N_142" type="ego_car" route="S2N" depart="745" departSpeed="10" departLane="best"/>
   <vehicle id="hS2N_143" type="ego_car" route="S2N" depart="746" departSpeed="10" departLane="best"/>
   <vehicle id="hE2W_144" type="ego_car" route="E2W" depart="759" departSpeed="10" departLane="best"/>
   <vehicle id="hW2E_145" type="ego_car" route="W2E" depart="763" departSpeed="10" departLane="best"/>
   <vehicle id="W2E_146" type="ego_car" route="W2E" depart="763" departSpeed="10" departLane="best"/>
   <vehicle id="hN2S_147" type="ego_car" route="N2S" depart="765" departSpeed="10" departLane="best"/>
   <vehicle id="hW2E_148" type="ego_car" route="W2E" depart="769" departSpeed="10" departLane="best"/>
   <vehicle id="W2E_149" type="ego_car" route="W2E" depart="771" departSpeed="10" departLane="best"/>
   <vehicle id="hS2N_150" type="ego_car" route="S2N" depart="772" departSpeed="10" departLane="best"/>
   <vehicle id="hS2N_151" type="ego_car" route="S2N" depart="778" departSpeed="10" departLane="best"/>
   <vehicle id="hN2S_152" type="ego_car" route="N2S" depart="785" departSpeed="10" departLane="best"/>
   <vehicle id="hS2N_153" type="ego_car" route="S2N" depart="791" departSpeed="10" departLane="best"/>
   <vehicle id="hE2W_154" type="ego_car" route="E2W" depart="792" departSpeed="10" departLane="best"/>
   <vehicle id="N2S_155" type="ego_car" route="N2S" depart="794" departSpeed="10" departLane="best"/>
   <vehicle id="S2N_156" type="ego_car" route="S2N" depart="799" departSpeed="10" departLane="best"/>
   <vehicle id="hN2S_157" type="ego_car" route="N2S" depart="802" departSpeed="10" departLane="best"/>
   <vehicle id="hS2N_158" type="ego_car" route="S2N" depart="809" departSpeed="10" departLane="best"/>
   <vehicle id="S2N_159" type="ego_car" route="S2N" depart="809" departSpeed="10" departLane="best"/>
   <vehicle id="W2E_160" type="ego_car" route="W2E" depart="813" departSpeed="10" departLane="best"/>
   <vehicle id="N2S_161" type="ego_car" route="N2S" depart="814" departSpeed="10" departLane="best"/>
   <vehicle id="hN2S_162" type="ego_car" route="N2S" depart="818" departSpeed="10" departLane="best"/>
   <vehicle id="W2E_163" type="ego_car" route="W2E" depart="824" departSpeed="10" departLane="best"/>
   <vehicle id="hN2S_164" type="ego_car" route="N2S" depart="830" departSpeed="10" departLane="best"/>
   <vehicle id="hS2N_165" type="ego_car" route="S2N" depart="833" departSpeed="10" departLane="best"/>
   <vehicle id="N2S_166" type="ego_car" route="N2S" depart="841" departSpeed="10" departLane="best"/>
   <vehicle id="W2E_167" type="ego_car" route="W2E" depart="844" departSpeed="10" departLane="best"/>
   <vehicle id="hS2N_168" type="ego_car" route="S2N" depart="847" departSpeed="10" departLane="best"/>
   <vehicle id="E2W_169" type="ego_car" route="E2W" depart="851" departSpeed="10" departLane="best"/>
   <vehicle id="E2W_170" type="ego_car" route="E2W" depart="853" departSpeed="10" departLane="best"/>
   <vehicle id="hN2S_171" type="ego_car" route="N2S" depart="856" departSpeed="10" departLane="best"/>
   <vehicle id="hW2E_172" type="ego_car" route="W2E" depart="857" departSpeed="10" departLane="best"/>
   <vehicle id="hE2W_173" type="ego_car" route="E2W" depart="860" departSpeed="10" departLane="best"/>
   <vehicle id="hW2E_174" type="ego_car" route="W2E" depart="864" departSpeed="10" departLane="best"/>
   <vehicle id="hW2E_175" type="ego_car" route="W2E" depart="872" departSpeed="10" departLane="best"/>
   <vehicle id="E2W_176" type="ego_car" route="E2W" depart="874" departSpeed="10" departLane="best"/>
   <vehicle id="W2E_177" type="ego_car" route="W2E" depart="878" departSpeed="10" departLane="best"/>
   <vehicle id="hN2S_178" type="ego_car" route="N2S" depart="878" departSpeed="10" departLane="best"/>
   <vehicle id="hW2E_179" type="ego_car" route="W2E" depart="880" departSpeed="10" departLane="best"/>
   <vehicle id="hW2E_180" type="ego_car" route="W2E" depart="881" departSpeed="10" departLane="best"/>
   <vehicle id="hN2S_181" type="ego_car" route="N2S" depart="891" departSpeed="10" departLane="best"/>
   <vehicle id="hS2N_182" type="ego_car" route="S2N" depart="893" departSpeed="10" departLane="best"/>
   <vehicle id="hS2N_183" type="ego_car" route="S2N" depart="905" departSpeed="10" departLane="best"/>
   <vehicle id="S2N_184" type="ego_car" route="S2N" depart="907" departSpeed="10" departLane="best"/>
   <vehicle id="hN2S_185" type="ego_car" route="N2S" depart="914" departSpeed="10" departLane="best"/>
   <vehicle id="hE2W_186" type="ego_car" route="E2W" depart="923" departSpeed="10" departLane="best"/>
   <vehicle id="hS2N_187" type="ego_car" route="S2N" depart="929" departSpeed="10" departLane="best"/>
   <vehicle id="N2S_188" type="ego_car" route="N2S" depart="929" departSpeed="10" departLane="best"/>
   <vehicle id="E2W_189" type="ego_car" route="E2W" depart="930" departSpeed="10" departLane="best"/>
   <vehicle id="hW2E_190" type="ego_car" route="W2E" depart="932" departSpeed="10" departLane="best"/>
   <vehicle id="hN2S_191" type="ego_car" route="N2S" depart="936" departSpeed="10" departLane="best"/>
   <vehicle id="hS2N_192" type="ego_car" route="S2N" depart="937" departSpeed="10" departLane="best"/>
   <vehicle id="E2W_193" type="ego_car" route="E2W" depart="939" departSpeed="10" departLane="best"/>
   <vehicle id="hW2E_194" type="ego_car" route="W2E" depart="941" departSpeed="10" departLane="best"/>
   <vehicle id="hW2E_195" type="ego_car" route="W2E" depart="945" departSpeed="10" departLane="best"/>
   <vehicle id="hW2E_196" type="ego_car" route="W2E" depart="946" departSpeed="10" departLane="best"/>
   <vehicle id="hE2W_197" type="ego_car" route="E2W" depart="950" departSpeed="10" departLane="best"/>
   <vehicle id="W2E_198" type="ego_car" route="W2E" depart="955" departSpeed="10" departLane="best"/>
   <vehicle id="hW2E_199" type="ego_car" route="W2E" depart="962" departSpeed="10" departLane="best"/>
   <vehicle id="hS2N_200" type="ego_car" route="S2N" depart="964" departSpeed="10" departLane="best"/>
   <vehicle id="hE2W_201" type="ego_car" route="E2W" depart="978" departSpeed="10" departLane="best"/>
   <vehicle id="hE2W_202" type="ego_car" route="E2W" depart="978" departSpeed="10" departLane="best"/>
   <vehicle id="hN2S_203" type="ego_car" route="N2S" depart="978" departSpeed="10" departLane="best"/>
   <vehicle id="N2S_204" type="ego_car" route="N2S" depart="979" departSpeed="10" departLane="best"/>
   <vehicle id="hE2W_205" type="ego_car" route="E2W" depart="980" departSpeed="10" departLane="best"/>
   <vehicle id="W2E_206" type="ego_car" route="W2E" depart="984" departSpeed="10" departLane="best"/>
   <vehicle id="hE2W_207" type="ego_car" route="E2W" depart="987" departSpeed="10" departLane="best"/>
   <vehicle id="E2W_208" type="ego_car" route="E2W" depart="989" departSpeed="10" departLane="best"/>
   <vehicle id="hW2E_209" type="ego_car" route="W2E" depart="993" departSpeed="10" departLane="best"/>
   <vehicle id="hE2W_210" type="ego_car" route="E2W" depart="1007" departSpeed="10" departLane="best"/>
   <vehicle id="hN2S_211" type="ego_car" route="N2S" depart="1008" departSpeed="10" departLane="best"/>
   <vehicle id="hS2N_212" type="ego_car" route="S2N" depart="1009" departSpeed="10" departLane="best"/>
   <vehicle id="hN2S_213" type="ego_car" route="N2S" depart="1012" departSpeed="10" departLane="best"/>
   <vehicle id="hN2S_214" type="ego_car" route="N2S" depart="1024" departSpeed="10" departLane="best"/>
   <vehicle id="hS2N_215" type="ego_car" route="S2N" depart="1026" departSpeed="10" departLane="best"/>
   <vehicle id="hE2W_216" type="ego_car" route="E2W" depart="1027" departSpeed="10" departLane="best"/>
   <vehicle id="hN2S_217" type="ego_car" route="N2S" depart="1028" departSpeed="10" departLane="best"/>
   <vehicle id="hW2E_218" type="ego_car" route="W2E" depart="1030" departSpeed="10" departLane="best"/>
   <vehicle id="S2N_219" type="ego_car" route="S2N" depart="1032" departSpeed="10" departLane="best"/>
   <vehicle id="hS2N_220" type="ego_car" route="S2N" depart="1032" departSpeed="10" departLane="best"/>
   <vehicle id="hW2E_221" type="ego_car" route="W2E" depart="1035" departSpeed="10" departLane="best"/>
   <vehicle id="hS2N_222" type="ego_car" route="S2N" depart="1045" departSpeed="10" departLane="best"/>
   <vehicle id="hE2W_223" type="ego_car" route="E2W" depart="1049" departSpeed="10" departLane="best"/>
   <vehicle id="hE2W_224" type="ego_car" route="E2W" depart="1063" departSpeed="10" departLane="best"/>
   <vehicle id="S2N_225" type="ego_car" route="S2N" depart="1074" departSpeed="10" departLane="best"/>
   <vehicle id="hN2S_226" type="ego_car" route="N2S" depart="1082" departSpeed="10" departLane="best"/>
   <vehicle id="hS2N_227" type="ego_car" route="S2N" depart="1089" departSpeed="10" departLane="best"/>
   <vehicle id="hE2W_228" type="ego_car" route="E2W" depart="1094" departSpeed="10" departLane="best"/>
   <vehicle id="N2S_229" type="ego_car" route="N2S" depart="1094" departSpeed="10" departLane="best"/>
   <vehicle id="hS2N_230" type="ego_car" route="S2N" depart="1095" departSpeed="10" departLane="best"/>
   <vehicle id="S2N_231" type="ego_car" route="S2N" depart="1103" departSpeed="10" departLane="best"/>
   <vehicle id="W2E_232" type="ego_car" route="W2E" depart="1106" departSpeed="10" departLane="best"/>
   <vehicle id="hN2S_233" type="ego_car" route="N2S" depart="1106" departSpeed="10" departLane="best"/>
   <vehicle id="hS2N_234" type="ego_car" route="S2N" depart="1119" departSpeed="10" departLane="best"/>
   <vehicle id="W2E_235" type="ego_car" route="W2E" depart="1129" departSpeed="10" departLane="best"/>
   <vehicle id="E2W_236" type="ego_car" route="E2W" depart="1134" departSpeed="10" departLane="best"/>
   <vehicle id="hN2S_237" type="ego_car" route="N2S" depart="1135" departSpeed="10" departLane="best"/>
   <vehicle id="S2N_238" type="ego_car" route="S2N" depart="1136" departSpeed="10" departLane="best"/>
   <vehicle id="hW2E_239" type="ego_car" route="W2E" depart="1146" departSpeed="10" departLane="best"/>
   <vehicle id="hW2E_240" type="ego_car" route="W2E" depart="1149" departSpeed="10" departLane="best"/>
   <vehicle id="hW2E_241" type="ego_car" route="W2E" depart="1163" departSpeed="10" departLane="best"/>
   <vehicle id="hS2N_242" type="ego_car" route="S2N" depart="1167" departSpeed="10" departLane="best"/>
   <vehicle id="hE2W_243" type="ego_car" route="E2W" depart="1170" departSpeed="10" departLane="best"/>
   <vehicle id="hN2S_244" type="ego_car" route="N2S" depart="1172" departSpeed="10" departLane="best"/>
   <vehicle id="S2N_245" type="ego_car" route="S2N" depart="1175" departSpeed="10" departLane="best"/>
   <vehicle id="hE2W_246" type="ego_car" route="E2W" depart="1177" departSpeed="10" departLane="best"/>
   <vehicle id="E2W_247" type="ego_car" route="E2W" depart="1183" departSpeed="10" departLane="best"/>
   <vehicle id="hE2W_248" type="ego_car" route="E2W" depart="1190" departSpeed="10" departLane="best"/>
   <vehicle id="hE2W_249" type="ego_car" route="E2W" depart="1197" departSpeed="10" departLane="best"/>
   <vehicle id="hS2N_250" type="ego_car" route="S2N" depart="1199" departSpeed="10" departLane="best"/>
   <vehicle id="hW2E_251" type="ego_car" route="W2E" depart="1201" departSpeed="10" departLane="best"/>
   <vehicle id="hN2S_252" type="ego_car" route="N2S" depart="1205" departSpeed="10" departLane="best"/>
   <vehicle id="N2S_253" type="ego_car" route="N2S" depart="1212" departSpeed="10" departLane="best"/>
   <vehicle id="hE2W_254" type="ego_car" route="E2W" depart="1212" departSpeed="10" departLane="best"/>
   <vehicle id="hE2W_255" type="ego_car" route="E2W" depart="1214" departSpeed="10" departLane="best"/>
   <vehicle id="hW2E_256" type="ego_car" route="W2E" depart="1215" departSpeed="10" departLane="best"/>
   <vehicle id="W2E_257" type="ego_car" route="W2E" depart="1220" departSpeed="10" departLane="best"/>
   <vehicle id="E2W_258" type="ego_car" route="E2W" depart="1222" departSpeed="10" departLane="best"/>
   <vehicle id="hW2E_259" type="ego_car" route="W2E" depart="1223" departSpeed="10" departLane="best"/>
   <vehicle id="hS2N_260" type="ego_car" route="S2N" depart="1224" departSpeed="10" departLane="best"/>
   <vehicle id="hN2S_261" type="ego_car" route="N2S" depart="1235" departSpeed="10" departLane="best"/>
   <vehicle id="hS2N_262" type="ego_car" route="S2N" depart="1238" departSpeed="10" departLane="best"/>
   <vehicle id="hS2N_263" type="ego_car" route="S2N" depart="1238" departSpeed="10" departLane="best"/>
   <vehicle id="E2W_264" type="ego_car" route="E2W" depart="1247" departSpeed="10" departLane="best"/>
   <vehicle id="hE2W_265" type="ego_car" route="E2W" depart="1264" departSpeed="10" departLane="best"/>
   <vehicle id="hW2E_266" type="ego_car" route="W2E" depart="1268" departSpeed="10" departLane="best"/>
   <vehicle id="hS2N_267" type="ego_car" route="S2N" depart="1269" departSpeed="10" departLane="best"/>
   <vehicle id="hW2E_268" type="ego_car" route="W2E" depart="1269" departSpeed="10" departLane="best"/>
   <vehicle id="hN2S_269" type="ego_car" route="N2S" depart="1269" departSpeed="10" departLane="best"/>
   <vehicle id="S2N_270" type="ego_car" route="S2N" depart="1269" departSpeed="10" departLane="best"/>
   <vehicle id="hN2S_271" type="ego_car" route="N2S" depart="1274" departSpeed="10" departLane="best"/>
   <vehicle id="hW2E_272" type="ego_car" route="W2E" depart="1282" departSpeed="10" departLane="best"/>
   <vehicle id="hN2S_273" type="ego_car" route="N2S" depart="1293" departSpeed="10" departLane="best"/>
   <vehicle id="hN2S_274" type="ego_car" route="N2S" depart="1299" departSpeed="10" departLane="best"/>
   <vehicle id="S2N_275" type="ego_car" route="S2N" depart="1304" departSpeed="10" departLane="best"/>
   <vehicle id="W2E_276" type="ego_car" route="W2E" depart="1304" departSpeed="10" departLane="best"/>
   <vehicle id="E2W_277" type="ego_car" route="E2W" depart="1314" departSpeed="10" departLane="best"/>
   <vehicle id="hW2E_278" type="ego_car" route="W2E" depart="1321" departSpeed="10" departLane="best"/>
   <vehicle id="hE2W_279" type="ego_car" route="E2W" depart="1324" departSpeed="10" departLane="best"/>
   <vehicle id="hW2E_280" type="ego_car" route="W2E" depart="1329" departSpeed="10" departLane="best"/>
   <vehicle id="hS2N_281" type="ego_car" route="S2N" depart="1346" departSpeed="10" departLane="best"/>
   <vehicle id="S2N_282" type="ego_car" route="S2N" depart="1348" departSpeed="10" departLane="best"/>
   <vehicle id="hE2W_283" type="ego_car" route="E2W" depart="1355" departSpeed="10" departLane="best"/>
   <vehicle id="hN2S_284" type="ego_car" route="N2S" depart="1359" departSpeed="10" departLane="best"/>
   <vehicle id="hN2S_285" type="ego_car" route="N2S" depart="1363" departSpeed="10" departLane="best"/>
   <vehicle id="hW2E_286" type="ego_car" route="W2E" depart="1364" departSpeed="10" departLane="best"/>
   <vehicle id="hW2E_287" type="ego_car" route="W2E" depart="1367" departSpeed="10" departLane="best"/>
   <vehicle id="S2N_288" type="ego_car" route="S2N" depart="1374" departSpeed="10" departLane="best"/>