<routes>

        <vType id = 'ego_car' vclass="evehicle" emissionClass="Energy" tau="1.5" accel="3.0" decel="3.0" color="#00FFFF" sigma="0.2" length="4.90" minGap="1.0" maxSpeed="20" carFollowing="IDM" guiShape="passenger"/>

        <route id="N2S" edges="NS -SN"/>
        <route id="S2N" edges="SN -NS"/>
        <route id="W2E" edges="WE -EW"/>
        <route id="E2W" edges="EW -WE"/>
   <vehicle id="hW2E_1" type="ego_car" route="W2E" depart="38" departSpeed="10" departLane="best"/>
   <vehicle id="N2S_2" type="ego_car" route="N2S" depart="119" departSpeed="10" departLane="best"/>
   <vehicle id="hN2S_3" type="ego_car" route="N2S" depart="128" departSpeed="10" departLane="best"/>
   <vehicle id="E2W_4" type="ego_car" route="E2W" depart="143" departSpeed="10" departLane="best"/>
   <vehicle id="hW2E_5" type="ego_car" route="W2E" depart="143" departSpeed="10" departLane="best"/>
   <vehicle id="hE2W_6" type="ego_car" route="E2W" depart="158" departSpeed="10" departLane="best"/>
   <vehicle id="hW2E_7" type="ego_car" route="W2E" depart="159" departSpeed="10" departLane="best"/>
   <vehicle id="N2S_8" type="ego_car" route="N2S" depart="171" departSpeed="10" departLane="best"/>
   <vehicle id="hE2W_9" type="ego_car" route="E2W" depart="175" departSpeed="10" departLane="best"/>
   <vehicle id="W2E_10" type="ego_car" route="W2E" depart="187" departSpeed="10" departLane="best"/>
   <vehicle id="W2E_11" type="ego_car" route="W2E" depart="199" departSpeed="10" departLane="best"/>
   <vehicle id="hN2S_12" type="ego_car" route="N2S" depart="201" departSpeed="10" departLane="best"/>
   <vehicle id="E2W_13" type="ego_car" route="E2W" depart="206" departSpeed="10" departLane="best"/>
   <vehicle id="E2W_14" type="ego_car" route="E2W" depart="208" departSpeed="10" departLane="best"/>
   <vehicle id="hN2S_15" type="ego_car" route="N2S" depart="227" departSpeed="10" departLane="best"/>
   <vehicle id="hN2S_16" type="ego_car" route="N2S" depart="230" departSpeed="10" departLane="best"/>
   <vehicle id="W2E_17" type="ego_car" route="W2E" depart="232" departSpeed="10" departLane="best"/>
   <vehicle id="hW2E_18" type="ego_car" route="W2E" depart="236" departSpeed="10" departLane="best"/>
   <vehicle id="hW2E_19" type="ego_car" route="W2E" depart="248" departSpeed="10" departLane="best"/>
   <vehicle id="S2N_20" type="ego_car" route="S2N" depart="249" departSpeed="10" departLane="best"/>
   <vehicle id="hW2E_21" type="ego_car" route="W2E" depart="253" departSpeed="10" departLane="best"/>
   <vehicle id="hS2N_22" type="ego_car" route="S2N" depart="254" departSpeed="10" departLane="best"/>
   <vehicle id="hS2N_23" type="ego_car" route="S2N" depart="255" departSpeed="10" departLane="best"/>
   <vehicle id="N2S_24" type="ego_car" route="N2S" depart="255" departSpeed="10" departLane="best"/>
   <vehicle id="hW2E_25" type="ego_car" route="W2E" depart="257" departSpeed="10" departLane="best"/>
   <vehicle id="hS2N_26" type="ego_car" route="S2N" depart="262" departSpeed="10" departLane="best"/>
   <vehicle id="W2E_27" type="ego_car" route="W2E" depart="262" departSpeed="10" departLane="best"/>
   <vehicle id="W2E_28" type="ego_car" route="W2E" depart="277" departSpeed="10" departLane="best"/>
   <vehicle id="hW2E_29" type="ego_car" route="W2E" depart="282" departSpeed="10" departLane="best"/>
   <vehicle id="hN2S_30" type="ego_car" route="N2S" depart="283" departSpeed="10" departLane="best"/>
   <vehicle id="hS2N_31" type="ego_car" route="S2N" depart="284" departSpeed="10" departLane="best"/>
   <vehicle id="hE2W_32" type="ego_car" route="E2W" depart="292" departSpeed="10" departLane="best"/>
   <vehicle id="hE2W_33" type="ego_car" route="E2W" depart="297" departSpeed="10" departLane="best"/>
   <vehicle id="hS2N_34" type="ego_car" route="S2N" depart="300" departSpeed="10" departLane="best"/>
   <vehicle id="hS2N_35" type="ego_car" route="S2N" depart="314" departSpeed="10" departLane="best"/>
   <vehicle id="hN2S_36" type="ego_car" route="N2S" depart="317" departSpeed="10" departLane="best"/>
   <vehicle id="hW2E_37" type="ego_car" route="W2E" depart="335" departSpeed="10" departLane="best"/>
   <vehicle id="hE2W_38" type="ego_car" route="E2W" depart="339" departSpeed="10" departLane="best"/>
   <vehicle id="hW2E_39" type="ego_car" route="W2E" depart="341" departSpeed="10" departLane="best"/>
   <vehicle id="hW2E_40" type="ego_car" route="W2E" depart="352" departSpeed="10" departLane="best"/>
   <vehicle id="hS2N_41" type="ego_car" route="S2N" depart="370" departSpeed="10" departLane="best"/>
   <vehicle id="S2N_42" type="ego_car" route="S2N" depart="375" departSpeed="10" departLane="best"/>
   <vehicle id="W2E_43" type="ego_car" route="W2E" depart="375" departSpeed="10" departLane="best"/>
   <vehicle id="hE2W_44" type="ego_car" route="E2W" depart="386" departSpeed="10" departLane="best"/>
   <vehicle id="E2W_45" type="ego_car" route="E2W" depart="406" departSpeed="10" departLane="best"/>
   <vehicle id="N2S_46" type="ego_car" route="N2S" depart="407" departSpeed="10" departLane="best"/>
   <vehicle id="S2N_47" type="ego_car" route="S2N" depart="412" departSpeed="10" departLane="best"/>
   <vehicle id="hW2E_48" type="ego_car" route="W2E" depart="425" departSpeed="10" departLane="best"/>
   <vehicle id="hS2N_49" type="ego_car" route="S2N" depart="447" departSpeed="10" departLane="best"/>
   <vehicle id="hS2N_50" type="ego_car" route="S2N" depart="454" departSpeed="10" departLane="best"/>
   <vehicle id="hE2W_51" type="ego_car" route="E2W" depart="455" departSpeed="10" departLane="best"/>
   <vehicle id="N2S_52" type="ego_car" route="N2S" depart="466" departSpeed="10" departLane="best"/>
   <vehicle id="hS2N_53" type="ego_car" route="S2N" depart="468" departSpeed="10" departLane="best"/>
   <vehicle id="hS2N_54" type="ego_car" route="S2N" depart="470" departSpeed="10" departLane="best"/>
   <vehicle id="hW2E_55" type="ego_car" route="W2E" depart="470" departSpeed="10" departLane="best"/>
   <vehicle id="hS2N_56" type="ego_car" route="S2N" depart="472" departSpeed="10" departLane="best"/>
   <vehicle id="E2W_57" type="ego_car" route="E2W" depart="478" departSpeed="10" departLane="best"/>
   <vehicle id="hE2W_58" type="ego_car" route="E2W" depart="478" departSpeed="10" departLane="best"/>
   <vehicle id="W2E_59" type="ego_car" route="W2E" depart="478" departSpeed="10" departLane="best"/>
   <vehicle id="hN2S_60" type="ego_car" route="N2S" depart="481" departSpeed="10" departLane="best"/>
   <vehicle id="hS2N_61" type="ego_car" route="S2N" depart="483" departSpeed="10" departLane="best"/>
   <vehicle id="hW2E_62" type="ego_car" route="W2E" depart="484" departSpeed="10" departLane="best"/>
   <vehicle id="hE2W_63" type="ego_car" route="E2W" depart="485" departSpeed="10" departLane="best"/>
   <vehicle id="hE2W_64" type="ego_car" route="E2W" depart="491" departSpeed="10" departLane="best"/>
   <vehicle id="hE2W_65" type="ego_car" route="E2W" depart="503" departSpeed="10" departLane="best"/>
   <vehicle id="hN2S_66" type="ego_car" route="N2S" depart="508" departSpeed="10" departLane="best"/>
   <vehicle id="N2S_67" type="ego_car" route="N2S" depart="509" departSpeed="10" departLane="best"/>
   <vehicle id="N2S_68" type="ego_car" route="N2S" depart="513" departSpeed="10" departLane="best"/>
   <vehicle id="hE2W_69" type="ego_car" route="E2W" depart="521" departSpeed="10" departLane="best"/>
   <vehicle id="hN2S_70" type="ego_car" route="N2S" depart="522" departSpeed="10" departLane="best"/>
   <vehicle id="W2E_71" type="ego_car" route="W2E" depart="531" departSpeed="10" departLane="best"/>
   <vehicle id="hW2E_72" type="ego_car" route="W2E" depart="540" departSpeed="10" departLane="best"/>
   <vehicle id="hS2N_73" type="ego_car" route="S2N" depart="544" departSpeed="10" departLane="best"/>
   <vehicle id="hN2S_74" type="ego_car" route="N2S" depart="551" departSpeed="10" departLane="best"/>
   <vehicle id="hE2W_75" type="ego_car" route="E2W" depart="553" departSpeed="10" departLane="best"/>
   <vehicle id="hS2N_76" type="ego_car" route="S2N" depart="561" departSpeed="10" departLane="best"/>
   <vehicle id="hS2N_77" type="ego_car" route="S2N" depart="565" departSpeed="10" departLane="best"/>
   <vehicle id="hW2E_78" type="ego_car" route="W2E" depart="567" departSpeed="10" departLane="best"/>
   <vehicle id="hN2S_79" type="ego_car" route="N2S" depart="569" departSpeed="10" departLane="best"/>
   <vehicle id="E2W_80" type="ego_car" route="E2W" depart="569" departSpeed="10" departLane="best"/>
   <vehicle id="hN2S_81" type="ego_car" route="N2S" depart="573" departSpeed="10" departLane="best"/>
   <vehicle id="hE2W_82" type="ego_car" route="E2W" depart="576" departSpeed="10" departLane="best"/>
   <vehicle id="hE2W_83" type="ego_car" route="E2W" depart="579" departSpeed="10" departLane="best"/>
   <vehicle id="hN2S_84" type="ego_car" route="N2S" depart="585" departSpeed="10" departLane="best"/>
   <vehicle id="hN2S_85" type="ego_car" route="N2S" depart="590" departSpeed="10" departLane="best"/>
   <vehicle id="E2W_86" type="ego_car" route="E2W" depart="593" departSpeed="10" departLane="best"/>
   <vehicle id="hN2S_87" type="ego_car" route="N2S" depart="594" departSpeed="10" departLane="best"/>
   <vehicle id="hW2E_88" type="ego_car" route="W2E" depart="596" departSpeed="10" departLane="best"/>
   <vehicle id="N2S_89" type="ego_car" route="N2S" depart="597" departSpeed="10" departLane="best"/>
   <vehicle id="E2W_90" type="ego_car" route="E2W" depart="598" departSpeed="10" departLane="best"/>
   <vehicle id="E2W_91" type="ego_car" route="E2W" depart="615" departSpeed="10" departLane="best"/>
   <vehicle id="hW2E_92" type="ego_car" route="W2E" depart="616" departSpeed="10" departLane="best"/>
   <vehicle id="hS2N_93" type="ego_car" route="S2N" depart="620" departSpeed="10" departLane="best"/>
   <vehicle id="hE2W_94" type="ego_car" route="E2W" depart="621" departSpeed="10" departLane="best"/>
   <vehicle id="E2W_95" type="ego_car" route="E2W" depart="621" departSpeed="10" departLane="best"/>
   <vehicle id="hW2E_96" type="ego_car" route="W2E" depart="626" departSpeed="10" departLane="best"/>
   <vehicle id="hW2E_97" type="ego_car" route="W2E" depart="627" departSpeed="10" departLane="best"/>
   <vehicle id="hN2S_98" type="ego_car" route="N2S" depart="630" departSpeed="10" departLane="best"/>
   <vehicle id="hE2W_99" type="ego_car" route="E2W" depart="630" departSpeed="10" departLane="best"/>
   <vehicle id="hW2E_100" type="ego_car" route="W2E" depart="641" departSpeed="10" departLane="best"/>
   <vehicle id="W2E_101" type="ego_car" route="W2E" depart="642" departSpeed="10" departLane="best"/>
   <vehicle id="hW2E_102" type="ego_car" route="W2E" depart="644" departSpeed="10" departLane="best"/>
   <vehicle id="hN2S_103" type="ego_car" route="N2S" depart="646" departSpeed="10" departLane="best"/>
   <vehicle id="hS2N_104" type="ego_car" route="S2N" depart="648" departSpeed="10" departLane="best"/>
   <vehicle id="hE2W_105" type="ego_car" route="E2W" depart="649" departSpeed="10" departLane="best"/>
   <vehicle id="hW2E_106" type="ego_car" route="W2E" depart="654" departSpeed="10" departLane="best"/>
   <vehicle id="W2E_107" type="ego_car" route="W2E" depart="659" departSpeed="10" departLane="best"/>
   <vehicle id="hN2S_108" type="ego_car" route="N2S" depart="663" departSpeed="10" departLane="best"/>
   <vehicle id="hN2S_109" type="ego_car" route="N2S" depart="664" departSpeed="10" departLane="best"/>
   <vehicle id="hS2N_110" type="ego_car" route="S2N" depart="673" departSpeed="10" departLane="best"/>
   <vehicle id="hW2E_111" type="ego_car" route="W2E" depart="679" departSpeed="10" departLane="best"/>
   <vehicle id="hN2S_112" type="ego_car" route="N2S" depart="690" departSpeed="10" departLane="best"/>
   <vehicle id="hE2W_113" type="ego_car" route="E2W" depart="696" departSpeed="10" departLane="best"/>
   <vehicle id="E2W_114" type="ego_car" route="E2W" depart="702" departSpeed="10" departLane="best"/>
   <vehicle id="hS2N_115" type="ego_car" route="S2N" depart="703" departSpeed="10" departLane="best"/>
   <vehicle id="hN2S_116" type="ego_car" route="N2S" depart="710" departSpeed="10" departLane="best"/>
   <vehicle id="hN2S_117" type="ego_car" route="N2S" depart="712" departSpeed="10" departLane="best"/>
   <vehicle id="hN2S_118" type="ego_car" route="N2S" depart="713" departSpeed="10" departLane="best"/>
   <vehicle id="hS2N_119" type="ego_car" route="S2N" depart="716" departSpeed="10" departLane="best"/>
   <vehicle id="N2S_120" type="ego_car" route="N2S" depart="720" departSpeed="10" departLane="best"/>
   <vehicle id="hN2S_121" type="ego_car" route="N2S" depart="725" departSpeed="10" departLane="best"/>
   <vehicle id="hS2N_122" type="ego_car" route="S2N" depart="733" departSpeed="10" departLane="best"/>
   <vehicle id="hN2S_123" type="ego_car" route="N2S" depart="734" departSpeed="10" departLane="best"/>
   <vehicle id="hS2N_124" type="ego_car" route="S2N" depart="742" departSpeed="10" departLane="best"/>
   <vehicle id="N2S_125" type="ego_car" route="N2S" depart="748" departSpeed="10" departLane="best"/>
   <vehicle id="hS2N_126" type="ego_car" route="S2N" depart="750" departSpeed="10" departLane="best"/>
   <vehicle id="N2S_127" type="ego_car" route="N2S" depart="754" departSpeed="10" departLane="best"/>
   <vehicle id="hS2N_128" type="ego_car" route="S2N" depart="755" departSpeed="10" departLane="best"/>
   <vehicle id="hN2S_129" type="ego_car" route="N2S" depart="755" departSpeed="10" departLane="best"/>
   <vehicle id="hN2S_130" type="ego_car" route="N2S" depart="757" departSpeed="10" departLane="best"/>
   <vehicle id="hS2N_131" type="ego_car" route="S2N" depart="758" departSpeed="10" departLane="best"/>
   <vehicle id="E2W_132" type="ego_car" route="E2W" depart="758" departSpeed="10" departLane="best"/>
   <vehicle id="hW2E_133" type="ego_car" route="W2E" depart="758" departSpeed="10" departLane="best"/>
   <vehicle id="hS2N_134" type="ego_car" route="S2N" depart="765" departSpeed="10" departLane="best"/>
   <vehicle id="E2W_135" type="ego_car" route="E2W" depart="766" departSpeed="10" departLane="best"/>
   <vehicle id="hN2S_136" type="ego_car" route="N2S" depart="769" departSpeed="10" departLane="best"/>
   <vehicle id="S2N_137" type="ego_car" route="S2N" depart="773" departSpeed="10" departLane="best"/>
   <vehicle id="hS2N_138" type="ego_car" route="S2N" depart="778" departSpeed="10" departLane="best"/>
   <vehicle id="hN2S_139" type="ego_car" route="N2S" depart="780" departSpeed="10" departLane="best"/>
   <vehicle id="S2N_140" type="ego_car" route="S2N" depart="783" departSpeed="10" departLane="best"/>
   <vehicle id="hS2N_141" type="ego_car" route="S2N" depart="785" departSpeed="10" departLane="best"/>
   <vehicle id="hE2W_142" type="ego_car" route="E2W" depart="787" departSpeed="10" departLane="best"/>
   <vehicle id="hE2W_143" type="ego_car" route="E2W" depart="791" departSpeed="10" departLane="best"/>
   <vehicle id="hS2N_144" type="ego_car" route="S2N" depart="792" departSpeed="10" departLane="best"/>
   <vehicle id="hE2W_145" type="ego_car" route="E2W" depart="792" departSpeed="10" departLane="best"/>
   <vehicle id="E2W_146" type="ego_car" route="E2W" depart="796" departSpeed="10" departLane="best"/>
   <vehicle id="hN2S_147" type="ego_car" route="N2S" depart="798" departSpeed="10" departLane="best"/>
   <vehicle id="hN2S_148" type="ego_car" route="N2S" depart="798" departSpeed="10" departLane="best"/>
   <vehicle id="N2S_149" type="ego_car" route="N2S" depart="804" departSpeed="10" departLane="best"/>
   <vehicle id="hW2E_150" type="ego_car" route="W2E" depart="806" departSpeed="10" departLane="best"/>
   <vehicle id="hS2N_151" type="ego_car" route="S2N" depart="809" departSpeed="10" departLane="best"/>
   <vehicle id="hS2N_152" type="ego_car" route="S2N" depart="809" departSpeed="10" departLane="best"/>
   <vehicle id="hS2N_153" type="ego_car" route="S2N" depart="812" departSpeed="10" departLane="best"/>
   <vehicle id="hW2E_154" type="ego_car" route="W2E" depart="825" departSpeed="10" departLane="best"/>
   <vehicle id="S2N_155" type="ego_car" route="S2N" depart="830" departSpeed="10" departLane="best"/>
   <vehicle id="W2E_156" type="ego_car" route="W2E" depart="839" departSpeed="10" departLane="best"/>
   <vehicle id="hW2E_157" type="ego_car" route="W2E" depart="848" departSpeed="10" departLane="best"/>
   <vehicle id="hE2W_158" type="ego_car" route="E2W" depart="860" departSpeed="10" departLane="best"/>
   <vehicle id="E2W_159" type="ego_car" route="E2W" depart="862" departSpeed="10" departLane="best"/>
   <vehicle id="E2W_160" type="ego_car" route="E2W" depart="864" departSpeed="10" departLane="best"/>
   <vehicle id="S2N_161" type="ego_car" route="S2N" depart="866" departSpeed="10" departLane="best"/>
   <vehicle id="hS2N_162" type="ego_car" route="S2N" depart="867" departSpeed="10" departLane="best"/>
   <vehicle id="E2W_163" type="ego_car" route="E2W" depart="880" departSpeed="10" departLane="best"/>
   <vehicle id="hS2N_164" type="ego_car" route="S2N" depart="881" departSpeed="10" departLane="best"/>
   <vehicle id="hW2E_165" type="ego_car" route="W2E" depart="886" departSpeed="10" departLane="best"/>
   <vehicle id="E2W_166" type="ego_car" route="E2W" depart="886" departSpeed="10" departLane="best"/>
   <vehicle id="E2W_167" type="ego_car" route="E2W" depart="897" departSpeed="10" departLane="best"/>
   <vehicle id="hN2S_168" type="ego_car" route="N2S" depart="900" departSpeed="10" departLane="best"/>
   <vehicle id="S2N_169" type="ego_car" route="S2N" depart="903" departSpeed="10" departLane="best"/>
   <vehicle id="N2S_170" type="ego_car" route="N2S" depart="908" departSpeed="10" departLane="best"/>
   <vehicle id="hE2W_171" type="ego_car" route="E2W" depart="915" departSpeed="10" departLane="best"/>
   <vehicle id="hE2W_172" type="ego_car" route="E2W" depart="915" departSpeed="10" departLane="best"/>
   <vehicle id="hN2S_173" type="ego_car" route="N2S" depart="915" departSpeed="10" departLane="best"/>
   <vehicle id="hS2N_174" type="ego_car" route="S2N" depart="923" departSpeed="10" departLane="best"/>
   <vehicle id="hW2E_175" type="ego_car" route="W2E" depart="925" departSpeed="10" departLane="best"/>
   <vehicle id="N2S_176" type="ego_car" route="N2S" depart="925" departSpeed="10" departLane="best"/>
   <vehicle id="N2S_177" type="ego_car" route="N2S" depart="927" departSpeed="10" departLane="best"/>
   <vehicle id="hN2S_178" type="ego_car" route="N2S" depart="932" departSpeed="10" departLane="best"/>
   <vehicle id="hW2E_179" type="ego_car" route="W2E" depart="938" departSpeed="10" departLane="best"/>
   <vehicle id="hS2N_180" type="ego_car" route="S2N" depart="942" departSpeed="10" departLane="best"/>
   <vehicle id="hN2S_181" type="ego_car" route="N2S" depart="945" departSpeed="10" departLane="best"/>
   <vehicle id="hS2N_182" type="ego_car" route="S2N" depart="948" departSpeed="10" departLane="best"/>
   <vehicle id="hW2E_183" type="ego_car" route="W2E" depart="949" departSpeed="10" departLane="best"/>
   <vehicle id="W2E_184" type="ego_car" route="W2E" depart="952" departSpeed="10" departLane="best"/>
   <vehicle id="hS2N_185" type="ego_car" route="S2N" depart="953" departSpeed="10" departLane="best"/>
   <vehicle id="hE2W_186" type="ego_car" route="E2W" depart="954" departSpeed="10" departLane="best"/>
   <vehicle id="hE2W_187" type="ego_car" route="E2W" depart="954" departSpeed="10" departLane="best"/>
   <vehicle id="S2N_188" type="ego_car" route="S2N" depart="964" departSpeed="10" departLane="best"/>
   <vehicle id="N2S_189" type="ego_car" route="N2S" depart="967" departSpeed="10" departLane="best"/>
   <vehicle id="hS2N_190" type="ego_car" route="S2N" depart="969" departSpeed="10" departLane="best"/>
   <vehicle id="hN2S_191" type="ego_car" route="N2S" depart="971" departSpeed="10" departLane="best"/>
   <vehicle id="hS2N_192" type="ego_car" route="S2N" depart="975" departSpeed="10" departLane="best"/>
   <vehicle id="E2W_193" type="ego_car" route="E2W" depart="983" departSpeed="10" departLane="best"/>
   <vehicle id="hS2N_194" type="ego_car" route="S2N" depart="984" departSpeed="10" departLane="best"/>
   <vehicle id="hN2S_195" type="ego_car" route="N2S" depart="988" departSpeed="10" departLane="best"/>
   <vehicle id="hW2E_196" type="ego_car" route="W2E" depart="996" departSpeed="10" departLane="best"/>
   <vehicle id="hE2W_197" type="ego_car" route="E2W" depart="996" departSpeed="10" departLane="best"/>
   <vehicle id="W2E_198" type="ego_car" route="W2E" depart="999" departSpeed="10" departLane="best"/>
   <vehicle id="hW2E_199" type="ego_car" route="W2E" depart="1003" departSpeed="10" departLane="best"/>
   <vehicle id="hW2E_200" type="ego_car" route="W2E" depart="1004" departSpeed="10" departLane="best"/>
   <vehicle id="hS2N_201" type="ego_car" route="S2N" depart="1006" departSpeed="10" departLane="best"/>
   <vehicle id="hN2S_202" type="ego_car" route="N2S" depart="1007" departSpeed="10" departLane="best"/>
   <vehicle id="hS2N_203" type="ego_car" route="S2N" depart="1015" departSpeed="10" departLane="best"/>
   <vehicle id="E2W_204" type="ego_car" route="E2W" depart="1016" departSpeed="10" departLane="best"/>
   <vehicle id="hS2N_205" type="ego_car" route="S2N" depart="1017" departSpeed="10" departLane="best"/>
   <vehicle id="S2N_206" type="ego_car" route="S2N" depart="1020" departSpeed="10" departLane="best"/>
   <vehicle id="hW2E_207" type="ego_car" route="W2E" depart="1027" departSpeed="10" departLane="best"/>
   <vehicle id="W2E_208" type="ego_car" route="W2E" depart="1032" departSpeed="10" departLane="best"/>
   <vehicle id="hS2N_209" type="ego_car" route="S2N" depart="1033" departSpeed="10" departLane="best"/>
   <vehicle id="hE2W_210" type="ego_car" route="E2W" depart="1034" departSpeed="10" departLane="best"/>
   <vehicle id="hN2S_211" type="ego_car" route="N2S" depart="1035" departSpeed="10" departLane="best"/>
   <vehicle id="hN2S_212" type="ego_car" route="N2S" depart="1038" departSpeed="10" departLane="best"/>
   <vehicle id="hN2S_213" type="ego_car" route="N2S" depart="1040" departSpeed="10" departLane="best"/>
   <vehicle id="hW2E_214" type="ego_car" route="W2E" depart="1042" departSpeed="10" departLane="best"/>
   <vehicle id="hW2E_215" type="ego_car" route="W2E" depart="1060" departSpeed="10" departLane="best"/>
   <vehicle id="hS2N_216" type="ego_car" route="S2N" depart="1066" departSpeed="10" departLane="best"/>
   <vehicle id="hW2E_217" type="ego_car" route="W2E" depart="1070" departSpeed="10" departLane="best"/>
   <vehicle id="hS2N_218" type="ego_car" route="S2N" depart="1072" departSpeed="10" departLane="best"/>
   <vehicle id="S2N_219" type="ego_car" route="S2N" depart="1078" departSpeed="10" departLane="best"/>
   <vehicle id="hS2N_220" type="ego_car" route="S2N" depart="1082" departSpeed="10" departLane="best"/>
   <vehicle id="hS2N_221" type="ego_car" route="S2N" depart="1087" departSpeed="10" departLane="best"/>
   <vehicle id="hE2W_222" type="ego_car" route="E2W" depart="1089" departSpeed="10" departLane="best"/>
   <vehicle id="hW2E_223" type="ego_car" route="W2E" depart="1093" departSpeed="10" departLane="best"/>
   <vehicle id="hS2N_224" type="ego_car" route="S2N" depart="1094" departSpeed="10" departLane="best"/>
   <vehicle id="W2E_225" type="ego_car" route="W2E" depart="1095" departSpeed="10" departLane="best"/>
   <vehicle id="hW2E_226" type="ego_car" route="W2E" depart="1102" departSpeed="10" departLane="best"/>
   <vehicle id="hE2W_227" type="ego_car" route="E2W" depart="1109" departSpeed="10" departLane="best"/>
   <vehicle id="hW2E_228" type="ego_car" route="W2E" depart="1110" departSpeed="10" departLane="best"/>
   <vehicle id="E2W_229" type="ego_car" route="E2W" depart="1111" departSpeed="10" departLane="best"/>
   <vehicle id="hW2E_230" type="ego_car" route="W2E" depart="1113" departSpeed="10" departLane="best"/>
   <vehicle id="W2E_231" type="ego_car" route="W2E" depart="1113" departSpeed="10" departLane="best"/>
   <vehicle id="S2N_232" type="ego_car" route="S2N" depart="1117" departSpeed="10" departLane="best"/>
   <vehicle id="hE2W_233" type="ego_car" route="E2W" depart="1121" departSpeed="10" departLane="best"/>
   <vehicle id="hN2S_234" type="ego_car" route="N2S" depart="1124" departSpeed="10" departLane="best"/>
   <vehicle id="N2S_235" type="ego_car" route="N2S" depart="1130" departSpeed="10" departLane="best"/>
   <vehicle id="S2N_236" type="ego_car" route="S2N" depart="1145" departSpeed="10" departLane="best"/>
   <vehicle id="hW2E_237" type="ego_car" route="W2E" depart="1151" departSpeed="10" departLane="best"/>
   <vehicle id="E2W_238" type="ego_car" route="E2W" depart="1159" departSpeed="10" departLane="best"/>
   <vehicle id="hE2W_239" type="ego_car" route="E2W" depart="1160" departSpeed="10" departLane="best"/>
   <vehicle id="hS2N_240" type="ego_car" route="S2N" depart="1161" departSpeed="10" departLane="best"/>
   <vehicle id="hW2E_241" type="ego_car" route="W2E" depart="1168" departSpeed="10" departLane="best"/>
   <vehicle id="hW2E_242" type="ego_car" route="W2E" depart="1168" departSpeed="10" departLane="best"/>
   <vehicle id="hN2S_243" type="ego_car" route="N2S" depart="1173" departSpeed="10" departLane="best"/>
   <vehicle id="hW2E_244" type="ego_car" route="W2E" depart="1176" departSpeed="10" departLane="best"/>
   <vehicle id="S2N_245" type="ego_car" route="S2N" depart="1179" departSpeed="10" departLane="best"/>
   <vehicle id="hS2N_246" type="ego_car" route="S2N" depart="1182" departSpeed="10" departLane="best"/>
   <vehicle id="E2W_247" type="ego_car" route="E2W" depart="1183" departSpeed="10" departLane="best"/>
   <vehicle id="hW2E_248" type="ego_car" route="W2E" depart="1186" departSpeed="10" departLane="best"/>
   <vehicle id="hW2E_249" type="ego_car" route="W2E" depart="1186" departSpeed="10" departLane="best"/>
   <vehicle id="hS2N_250" type="ego_car" route="S2N" depart="1189" departSpeed="10" departLane="best"/>
   <vehicle id="hN2S_251" type="ego_car" route="N2S" depart="1190" departSpeed="10" departLane="best"/>
   <vehicle id="hN2S_252" type="ego_car" route="N2S" depart="1194" departSpeed="10" departLane="best"/>
   <vehicle id="N2S_253" type="ego_car" route="N2S" depart="1198" departSpeed="10" departLane="best"/>
   <vehicle id="hS2N_254" type="ego_car" route="S2N" depart="1198" departSpeed="10" departLane="best"/>
   <vehicle id="hN2S_255" type="ego_car" route="N2S" depart="1203" departSpeed="10" departLane="best"/>
   <vehicle id="hS2N_256" type="ego_car" route="S2N" depart="1204" departSpeed="10" departLane="best"/>
   <vehicle id="E2W_257" type="ego_car" route="E2W" depart="1205" departSpeed="10" departLane="best"/>
   <vehicle id="S2N_258" type="ego_car" route="S2N" depart="1205" departSpeed="10" departLane="best"/>
   <vehicle id="hS2N_259" type="ego_car" route="S2N" depart="1205" departSpeed="10" departLane="best"/>
   <vehicle id="hN2S_260" type="ego_car" route="N2S" depart="1208" departSpeed="10" departLane="best"/>
   <vehicle id="hS2N_261" type="ego_car" route="S2N" depart="1210" departSpeed="10" departLane="best"/>
   <vehicle id="hW2E_262" type="ego_car" route="W2E" depart="1212" departSpeed="10" departLane="best"/>
   <vehicle id="hW2E_263" type="ego_car" route="W2E" depart="1219" departSpeed="10" departLane="best"/>
   <vehicle id="N2S_264" type="ego_car" route="N2S" depart="1223" departSpeed="10" departLane="best"/>
   <vehicle id="hE2W_265" type="ego_car" route="E2W" depart="1242" departSpeed="10" departLane="best"/>
   <vehicle id="hN2S_266" type="ego_car" route="N2S" depart="1251" departSpeed="10" departLane="best"/>
   <vehicle id="hS2N_267" type="ego_car" route="S2N" depart="1258" departSpeed="10" departLane="best"/>
   <vehicle id="hN2S_268" type="ego_car" route="N2S" depart="1261" departSpeed="10" departLane="best"/>
   <vehicle id="hW2E_269" type="ego_car" route="W2E" depart="1266" departSpeed="10" departLane="best"/>
   <vehicle id="W2E_270" type="ego_car" route="W2E" depart="1266" departSpeed="10" departLane="best"/>
   <vehicle id="hN2S_271" type="ego_car" route="N2S" depart="1276" departSpeed="10" departLane="best"/>
   <vehicle id="hW2E_272" type="ego_car" route="W2E" depart="1276" departSpeed="10" departLane="best"/>
   <vehicle id="hN2S_273" type="ego_car" route="N2S" depart="1279" departSpeed="10" departLane="best"/>
   <vehicle id="hW2E_274" type="ego_car" route="W2E" depart="1280" departSpeed="10" departLane="best"/>
   <vehicle id="E2W_275" type="ego_car" route="E2W" depart="1282" departSpeed="10" departLane="best"/>
   <vehicle id="E2W_276" type="ego_car" route="E2W" depart="1294" departSpeed="10" departLane="best"/>
   <vehicle id="S2N_277" type="ego_car" route="S2N" depart="1298" departSpeed="10" departLane="best"/>
   <vehicle id="hN2S_278" type="ego_car" route="N2S" depart="1304" departSpeed="10" departLane="best"/>
   <vehicle id="hW2E_279" type="ego_car" route="W2E" depart="1307" departSpeed="10" departLane="best"/>
   <vehicle id="hN2S_280" type="ego_car" route="N2S" depart="1312" departSpeed="10" departLane="best"/>
   <vehicle id="hW2E_281" type="ego_car" route="W2E" depart="1312" departSpeed="10" departLane="best"/>
   <vehicle id="E2W_282" type="ego_car" route="E2W" depart="1314" departSpeed="10" departLane="best"/>
   <vehicle id="hS2N_283" type="ego_car" route="S2N" depart="1314" departSpeed="10" departLane="best"/>
   <vehicle id="hW2E_284" type="ego_car" route="W2E" depart="1315" departSpeed="10" departLane="best"/>
   <vehicle id="hW2E_285" type="ego_car" route="W2E" depart="1318" departSpeed="10" departLane="best"/>
   <vehicle id="hS2N_286" type="ego_car" route="S2N" depart="1322" departSpeed="10" departLane="best"/>
   <vehicle id="hE2W_287" type="ego_car" route="E2W" depart="1324" departSpeed="10" departLane="best"/>
   <vehicle id="W2E_288" type="ego_car" route="W2E" depart="1324" departSpeed="10" departLane="best"/>